ver_1.2
     RDKit          2D

  3  2  0  0  0  0  0  0  0  0999 V2000
    2.5981   -0.0000    0.0000 F   0  0  0  0  0  0  0  0  0  0  0  0
    1.2990    0.7500    0.0000 O   0  0  0  0  0  0  0  0  0  0  0  0
    0.0000    0.0000    0.0000 O   0  0  0  0  0  0  0  0  0  0  0  0
  1  2  1  0
  2  3  1  0
M  END
>  <comRMSD>  (1) 
Combined RMSD from the atoms of the fragments that contributed to the position of the followup

>  <∆∆G>  (1) 
Difference in Gibbs Free energy relative to unbound molecule in kcal/mol (ref2015 scorefxn; negative=Good)

>  <N_constrained_atoms>  (1) 
Number of atoms in the submission that were constrained

>  <LE>  (1) 
Ligand efficiency (kcal/mol/N_heavy)

>  <ref_pdb>  (1) 
All ligands were evaluated against the apo of Rosetta-ED-guided-minimised 6WOJ

>  <ref_mols>  (1) 
all reference molecules

>  <%Rank>  (1) 
Sorted by 2x RSMD (high is bad) + LE (high is bad) - 3x N_constrained_atoms/(20+N_constrained_atoms) + N_unconstrained_atoms/N_constrained_atoms

>  <generation_date>  (1) 
2020-09-23

>  <method>  (1) 
Fragmenstein automerger

>  <submitter_email>  (1) 
matteo@well.ox.ac.uk

>  <original SMILES>  (1) 
molecule smiles

>  <ref_url>  (1) 
https://github.com/matteoferla/Fragmenstein

>  <submitter_name>  (1) 
Matteo Ferla

>  <submitter_institution>  (1) 
Universtity of Oxford

$$$$
x0852_0_B_α-x0371_0_A_β
     RDKit          3D

 20 22  0  0  0  0  0  0  0  0999 V2000
   -9.6800   17.8250    7.2390 N   0  0  0  0  0  0  0  0  0  0  0  0
   -9.4190   17.2870    6.2400 C   0  0  0  0  0  0  0  0  0  0  0  0
   -9.1720   16.5580    5.0330 C   0  0  0  0  0  0  0  0  0  0  0  0
   -8.2490   15.5100    4.9760 C   0  0  0  0  0  0  0  0  0  0  0  0
   -9.8890   16.9080    3.8820 C   0  0  0  0  0  0  0  0  0  0  0  0
   -7.5390   15.1560    6.0940 O   0  0  0  0  0  0  0  0  0  0  0  0
   -8.0510   14.8130    3.7870 C   0  0  0  0  0  0  0  0  0  0  0  0
   -9.6950   16.2100    2.6840 C   0  0  0  0  0  0  0  0  0  0  0  0
  -10.7290   16.7740    1.1880 Br  0  0  0  0  0  0  0  0  0  0  0  0
   -8.7710   15.1470    2.6250 C   0  0  0  0  0  0  0  0  0  0  0  0
   -8.5010   14.3230    1.3860 C   0  0  0  0  0  0  0  0  0  0  0  0
   -7.1840   14.5600    0.7350 C   0  0  0  0  0  0  0  0  0  0  0  0
   -5.9630   14.4980    1.3790 N   0  0  0  0  0  0  0  0  0  0  0  0
   -7.0230   14.8490   -0.5400 N   0  0  0  0  0  0  0  0  0  0  0  0
   -4.9920   14.7540    0.4610 C   0  0  0  0  0  0  0  0  0  0  0  0
   -5.6750   14.9720   -0.7270 C   0  0  0  0  0  0  0  0  0  0  0  0
   -3.6070   14.8090    0.5690 C   0  0  0  0  0  0  0  0  0  0  0  0
   -4.9640   15.2640   -1.8880 C   0  0  0  0  0  0  0  0  0  0  0  0
   -2.9130   15.0930   -0.6020 C   0  0  0  0  0  0  0  0  0  0  0  0
   -3.5720   15.3200   -1.8130 C   0  0  0  0  0  0  0  0  0  0  0  0
  1  2  3  0
  2  3  1  0
  3  4  2  0
  3  5  1  0
  4  6  1  0
  4  7  1  0
  5  8  2  0
  8  9  1  0
  7 10  2  0
  8 10  1  0
 10 11  1  0
 11 12  1  0
 12 13  1  0
 12 14  2  0
 13 15  1  0
 14 16  1  0
 15 16  2  0
 15 17  1  0
 16 18  1  0
 17 19  2  0
 18 20  2  0
 19 20  1  0
M  END
>  <comRMSD>  (2) 
0.207823

>  <∆∆G>  (2) 
-7.480275

>  <N_constrained_atoms>  (2) 
20.0

>  <LE>  (2) 
-0.374014

>  <ref_pdb>  (2) 
x0104_0

>  <ref_mols>  (2) 
x0852_0_B_α,x0371_0_A_β

>  <%Rank>  (2) 
0.017159

>  <generation_date>  (2) 
nan

>  <method>  (2) 
nan

>  <submitter_email>  (2) 
nan

>  <original SMILES>  (2) 
N#Cc1cc(Br)c(Cc2nc3ccccc3[nH]2)cc1O

>  <ref_url>  (2) 
nan

>  <submitter_name>  (2) 
nan

>  <submitter_institution>  (2) 
nan

$$$$
5cb5_O_0_O_α-6YWK_0_E_α
     RDKit          3D

 16 16  0  0  0  0  0  0  0  0999 V2000
   -1.7360   21.7170   -8.1750 C   0  0  0  0  0  0  0  0  0  0  0  0
   -1.4960   20.5090   -7.2760 C   0  0  0  0  0  0  0  0  0  0  0  0
    0.1250   19.7580   -7.4470 S   0  0  0  0  0  0  0  0  0  0  0  0
   -3.1590   21.9880   -8.7120 C   0  0  1  0  0  0  0  0  0  0  0  0
   -4.0930   21.0220   -8.1890 O   0  0  0  0  0  0  0  0  0  0  0  0
   -3.7480   23.3810   -8.4700 C   0  0  1  0  0  0  0  0  0  0  0  0
   -4.3060   24.0480   -9.5860 O   0  0  0  0  0  0  0  0  0  0  0  0
    1.2150   20.9290   -7.5810 O   0  0  0  0  0  0  0  0  0  0  0  0
    0.4710   18.8880   -6.1550 O   0  0  0  0  0  0  0  0  0  0  0  0
    0.1570   18.8000   -8.7340 O   0  0  0  0  0  0  0  0  0  0  0  0
   -5.2420   21.7220   -7.7300 C   0  0  2  0  0  0  0  0  0  0  0  0
   -4.7990   23.1400   -7.4090 C   0  0  2  0  0  0  0  0  0  0  0  0
   -5.7510   21.0690   -6.5870 O   0  0  0  0  0  0  0  0  0  0  0  0
   -5.8240   24.1370   -7.4680 O   0  0  0  0  0  0  0  0  0  0  0  0
   -6.6280   24.1660   -8.6630 C   0  0  0  0  0  0  0  0  0  0  0  0
   -7.1150   22.8800   -8.9960 O   0  0  0  0  0  0  0  0  0  0  0  0
  1  2  1  0
  2  3  1  0
  4  1  1  1
  4  5  1  0
  4  6  1  0
  6  7  1  6
  3  8  1  0
  3  9  1  0
  3 10  1  0
  5 11  1  0
  6 12  1  0
 11 12  1  0
 11 13  1  1
 12 14  1  6
 14 15  1  0
 15 16  1  0
M  END
>  <comRMSD>  (3) 
0.318719

>  <∆∆G>  (3) 
-10.470965

>  <N_constrained_atoms>  (3) 
16.0

>  <LE>  (3) 
-0.654435

>  <ref_pdb>  (3) 
x0104_0

>  <ref_mols>  (3) 


>  <%Rank>  (3) 
0.034317

>  <generation_date>  (3) 
nan

>  <method>  (3) 
nan

>  <submitter_email>  (3) 
nan

>  <original SMILES>  (3) 
OCOC1C(O)OC(CCS(O)(O)O)C1O

>  <ref_url>  (3) 
nan

>  <submitter_name>  (3) 
nan

>  <submitter_institution>  (3) 
nan

$$$$
x0438_0_A_α-x1015_0_A_α
     RDKit          3D

 31 34  0  0  0  0  0  0  0  0999 V2000
   -8.1790   15.5540    3.8750 C   0  0  0  0  0  0  0  0  0  0  0  0
   -9.3520   15.3180    2.5520 S   0  0  0  0  0  0  0  0  0  0  0  0
  -10.5630   14.7860    3.1490 O   0  0  0  0  0  0  0  0  0  0  0  0
   -8.6710   14.0280    1.5210 C   0  0  0  0  0  0  0  0  0  0  0  0
   -9.4450   16.5250    1.7570 O   0  0  0  0  0  0  0  0  0  0  0  0
   -7.3340   14.3840    0.9700 C   0  0  0  0  0  0  0  0  0  0  0  0
   -7.0990   14.5860   -0.3700 N   0  0  0  0  0  0  0  0  0  0  0  0
   -6.2260   14.5430    1.6620 N   0  0  0  0  0  0  0  0  0  0  0  0
   -5.2440   14.8490    0.7510 C   0  0  0  0  0  0  0  0  0  0  0  0
   -5.7660   14.8810   -0.5310 C   0  0  0  0  0  0  0  0  0  0  0  0
   -4.9990   15.1600   -1.6610 C   0  0  0  0  0  0  0  0  0  0  0  0
   -3.8810   15.1110    0.9530 C   0  0  0  0  0  0  0  0  0  0  0  0
   -3.6300   15.4100   -1.4600 C   0  0  0  0  0  0  0  0  0  0  0  0
   -3.0830   15.3900   -0.1680 C   0  0  0  0  0  0  0  0  0  0  0  0
   -2.7560   15.6910   -2.6590 C   0  0  0  0  0  0  0  0  0  0  0  0
   -2.3260   14.3640   -3.2920 C   0  0  0  0  0  0  0  0  0  0  0  0
   -1.1830   14.5320   -4.2910 C   0  0  0  0  0  0  0  0  0  0  0  0
    0.0760   13.6880   -3.9940 C   0  0  2  0  0  0  0  0  0  0  0  0
   -0.1500   12.2460   -3.9200 N   0  0  0  0  0  0  0  0  0  0  0  0
    0.4610   13.9470   -2.5400 C   0  0  0  0  0  0  0  0  0  0  0  0
    0.5250   15.0370   -1.9910 O   0  0  0  0  0  0  0  0  0  0  0  0
    0.2750   11.7260   -2.6850 C   0  0  0  0  0  0  0  0  0  0  0  0
    0.7360   12.7650   -1.9390 N   0  0  0  0  0  0  0  0  0  0  0  0
   -0.5250   11.4490   -5.0310 C   0  0  0  0  0  0  0  0  0  0  0  0
    0.2690   10.5590   -2.2850 O   0  0  0  0  0  0  0  0  0  0  0  0
    0.0490   11.6470   -6.2950 C   0  0  0  0  0  0  0  0  0  0  0  0
   -1.4800   10.4330   -4.8960 C   0  0  0  0  0  0  0  0  0  0  0  0
   -0.3220   10.8550   -7.3880 C   0  0  0  0  0  0  0  0  0  0  0  0
   -1.8550    9.6370   -5.9830 C   0  0  0  0  0  0  0  0  0  0  0  0
   -1.2730    9.8530   -7.2260 C   0  0  0  0  0  0  0  0  0  0  0  0
   -1.7360    8.8760   -8.5610 Cl  0  0  0  0  0  0  0  0  0  0  0  0
  2  1  1  0
  2  3  2  0
  2  4  1  0
  2  5  2  0
  4  6  1  0
  6  7  1  0
  6  8  2  0
  8  9  1  0
  7 10  1  0
  9 10  2  0
 10 11  1  0
  9 12  1  0
 11 13  2  0
 12 14  2  0
 13 14  1  0
 13 15  1  0
 15 16  1  0
 16 17  1  0
 18 17  1  1
 18 19  1  0
 18 20  1  0
 20 21  2  0
 19 22  1  0
 20 23  1  0
 22 23  1  0
 19 24  1  0
 22 25  2  0
 24 26  2  0
 24 27  1  0
 26 28  1  0
 27 29  2  0
 28 30  2  0
 29 30  1  0
 30 31  1  0
M  END
>  <comRMSD>  (4) 
0.163819

>  <∆∆G>  (4) 
-7.421265

>  <N_constrained_atoms>  (4) 
29.0

>  <LE>  (4) 
-0.239396

>  <ref_pdb>  (4) 
x0104_0

>  <ref_mols>  (4) 
x0438_0_A_α,x1015_0_A_α

>  <%Rank>  (4) 
0.051476

>  <generation_date>  (4) 
nan

>  <method>  (4) 
nan

>  <submitter_email>  (4) 
nan

>  <original SMILES>  (4) 
CS(=O)(=O)Cc1nc2ccc(CCCC3C(=O)NC(=O)N3c3ccc(Cl)cc3)cc2[nH]1

>  <ref_url>  (4) 
nan

>  <submitter_name>  (4) 
nan

>  <submitter_institution>  (4) 
nan

$$$$
x0465_0_A_α-x0290_0_A_α
     RDKit          3D

 27 28  0  0  0  0  0  0  0  0999 V2000
    2.0810   13.1210   -4.8650 C   0  0  0  0  0  0  0  0  0  0  0  0
    0.7250   12.4610   -4.6280 C   0  0  1  0  0  0  0  0  0  0  0  0
    0.5640   11.3810   -5.5390 O   0  0  0  0  0  0  0  0  0  0  0  0
    0.6840   11.9660   -3.1760 C   0  0  0  0  0  0  0  0  0  0  0  0
    0.7250   12.7940   -2.2170 N   0  0  0  0  0  0  0  0  0  0  0  0
    0.5990   10.6370   -2.9840 O   0  0  0  0  0  0  0  0  0  0  0  0
   -0.6450   10.7670   -5.6500 C   0  0  0  0  0  0  0  0  0  0  0  0
    0.7470   14.2160   -2.4820 C   0  0  0  0  0  0  0  0  0  0  0  0
   -0.7140    9.7210   -6.5830 C   0  0  0  0  0  0  0  0  0  0  0  0
   -1.7870   11.0900   -4.9240 C   0  0  0  0  0  0  0  0  0  0  0  0
    0.3590    9.3730   -7.3100 F   0  0  0  0  0  0  0  0  0  0  0  0
   -0.7270   14.6290   -2.3720 C   0  0  0  0  0  0  0  0  0  0  0  0
   -1.8940    9.0130   -6.7830 C   0  0  0  0  0  0  0  0  0  0  0  0
   -2.9760   10.3810   -5.1240 C   0  0  0  0  0  0  0  0  0  0  0  0
   -3.0270    9.3430   -6.0530 C   0  0  0  0  0  0  0  0  0  0  0  0
   -1.1590   14.6070   -0.9220 C   0  0  0  0  0  0  0  0  0  0  0  0
   -0.1780   14.5140    0.0590 C   0  0  0  0  0  0  0  0  0  0  0  0
   -2.5070   14.6700   -0.5220 C   0  0  0  0  0  0  0  0  0  0  0  0
   -0.5660   14.4880    1.3740 C   0  0  0  0  0  0  0  0  0  0  0  0
   -2.8160   14.6400    0.8320 C   0  0  0  0  0  0  0  0  0  0  0  0
   -4.1080   14.6930    1.3550 N   0  0  0  0  0  0  0  0  0  0  0  0
   -1.8480   14.5500    1.7790 N   0  0  0  0  0  0  0  0  0  0  0  0
   -5.3280   14.4540    0.8170 C   0  0  0  0  0  0  0  0  0  0  0  0
   -5.4540   14.5110   -0.4150 O   0  0  0  0  0  0  0  0  0  0  0  0
   -6.5510   14.1060    1.6720 C   0  0  0  0  0  0  0  0  0  0  0  0
   -7.7100   13.8350    0.8080 N   0  0  0  0  0  0  0  0  0  0  0  0
   -8.6200   14.9700    0.7620 C   0  0  0  0  0  0  0  0  0  0  0  0
  2  1  1  6
  2  3  1  0
  2  4  1  0
  4  5  2  3
  4  6  1  0
  3  7  1  0
  5  8  1  0
  7  9  2  0
  7 10  1  0
  9 11  1  0
  8 12  1  0
  9 13  1  0
 10 14  2  0
 13 15  2  0
 14 15  1  0
 12 16  1  0
 16 17  2  0
 16 18  1  0
 17 19  1  0
 18 20  2  0
 20 21  1  0
 19 22  2  0
 20 22  1  0
 21 23  1  0
 23 24  2  0
 23 25  1  0
 25 26  1  0
 26 27  1  0
M  END
>  <comRMSD>  (5) 
0.249204

>  <∆∆G>  (5) 
-8.947159

>  <N_constrained_atoms>  (5) 
26.0

>  <LE>  (5) 
-0.331376

>  <ref_pdb>  (5) 
x0104_0

>  <ref_mols>  (5) 
x0465_0_A_α,x0290_0_A_α

>  <%Rank>  (5) 
0.068634

>  <generation_date>  (5) 
nan

>  <method>  (5) 
nan

>  <submitter_email>  (5) 
nan

>  <original SMILES>  (5) 
CNCC(=O)Nc1cc(CCN=C(O)[C@@H](C)Oc2ccccc2F)ccn1

>  <ref_url>  (5) 
nan

>  <submitter_name>  (5) 
nan

>  <submitter_institution>  (5) 
nan

$$$$
x0290_0_A_α-x0465_0_A_α
     RDKit          3D

 27 28  0  0  0  0  0  0  0  0999 V2000
   -7.7190   13.8210    0.8450 N   0  0  0  0  0  0  0  0  0  0  0  0
   -8.6170   14.9640    0.7640 C   0  0  0  0  0  0  0  0  0  0  0  0
   -6.5520   14.0980    1.7010 C   0  0  0  0  0  0  0  0  0  0  0  0
   -5.3390   14.4440    0.8370 C   0  0  0  0  0  0  0  0  0  0  0  0
   -5.4680   14.5020   -0.3950 O   0  0  0  0  0  0  0  0  0  0  0  0
   -4.1030   14.6770    1.3510 N   0  0  0  0  0  0  0  0  0  0  0  0
   -2.8160   14.6350    0.8230 C   0  0  0  0  0  0  0  0  0  0  0  0
   -1.8470   14.5490    1.7740 N   0  0  0  0  0  0  0  0  0  0  0  0
   -2.4970   14.6690   -0.5300 C   0  0  0  0  0  0  0  0  0  0  0  0
   -0.5630   14.4960    1.3740 C   0  0  0  0  0  0  0  0  0  0  0  0
   -1.1490   14.6150   -0.9210 C   0  0  0  0  0  0  0  0  0  0  0  0
   -0.7110   14.6430   -2.3690 C   0  0  0  0  0  0  0  0  0  0  0  0
   -0.1710   14.5260    0.0610 C   0  0  0  0  0  0  0  0  0  0  0  0
    0.7520   14.2090   -2.4760 C   0  0  0  0  0  0  0  0  0  0  0  0
    0.7300   12.7910   -2.1710 N   0  0  0  0  0  0  0  0  0  0  0  0
    0.6780   11.9780   -3.1450 C   0  0  0  0  0  0  0  0  0  0  0  0
    0.7070   12.4430   -4.6140 C   0  0  1  0  0  0  0  0  0  0  0  0
    0.5860   10.6480   -2.9320 O   0  0  0  0  0  0  0  0  0  0  0  0
    2.0770   13.0670   -4.8820 C   0  0  0  0  0  0  0  0  0  0  0  0
    0.5480   11.4320   -5.5960 O   0  0  0  0  0  0  0  0  0  0  0  0
   -0.6490   10.7890   -5.6860 C   0  0  0  0  0  0  0  0  0  0  0  0
   -0.7050    9.7250   -6.5990 C   0  0  0  0  0  0  0  0  0  0  0  0
   -1.7920   11.1030   -4.9560 C   0  0  0  0  0  0  0  0  0  0  0  0
    0.3710    9.3870   -7.3270 F   0  0  0  0  0  0  0  0  0  0  0  0
   -1.8710    8.9890   -6.7780 C   0  0  0  0  0  0  0  0  0  0  0  0
   -2.9670   10.3660   -5.1350 C   0  0  0  0  0  0  0  0  0  0  0  0
   -3.0070    9.3100   -6.0440 C   0  0  0  0  0  0  0  0  0  0  0  0
  1  2  1  0
  1  3  1  0
  3  4  1  0
  4  5  2  0
  4  6  1  0
  6  7  1  0
  7  8  2  0
  7  9  1  0
  8 10  1  0
  9 11  2  0
 11 12  1  0
 10 13  2  0
 11 13  1  0
 12 14  1  0
 14 15  1  0
 15 16  2  3
 16 17  1  0
 16 18  1  0
 17 19  1  6
 17 20  1  0
 20 21  1  0
 21 22  2  0
 21 23  1  0
 22 24  1  0
 22 25  1  0
 23 26  2  0
 25 27  2  0
 26 27  1  0
M  END
>  <comRMSD>  (6) 
0.248303

>  <∆∆G>  (6) 
-8.775902

>  <N_constrained_atoms>  (6) 
26.0

>  <LE>  (6) 
-0.325033

>  <ref_pdb>  (6) 
x0104_0

>  <ref_mols>  (6) 
x0290_0_A_α,x0465_0_A_α

>  <%Rank>  (6) 
0.085793

>  <generation_date>  (6) 
nan

>  <method>  (6) 
nan

>  <submitter_email>  (6) 
nan

>  <original SMILES>  (6) 
CNCC(=O)Nc1cc(CCN=C(O)[C@@H](C)Oc2ccccc2F)ccn1

>  <ref_url>  (6) 
nan

>  <submitter_name>  (6) 
nan

>  <submitter_institution>  (6) 
nan

$$$$
x1018_0_A_α-x1015_0_A_α
     RDKit          3D

 26 29  0  0  0  0  0  0  0  0999 V2000
   -8.3930   14.3960    0.7760 Cl  0  0  0  0  0  0  0  0  0  0  0  0
   -6.7180   14.6200    0.4230 C   0  0  0  0  0  0  0  0  0  0  0  0
   -5.7200   14.2920    1.4650 C   0  0  0  0  0  0  0  0  0  0  0  0
   -6.4440   15.0800   -0.7530 N   0  0  0  0  0  0  0  0  0  0  0  0
   -5.1220   15.2880   -1.0330 N   0  0  0  0  0  0  0  0  0  0  0  0
   -4.4430   14.6040    1.2100 C   0  0  0  0  0  0  0  0  0  0  0  0
   -4.6820   14.8960   -2.2870 N   0  0  0  0  0  0  0  0  0  0  0  0
   -4.0340   15.2590   -0.0590 C   0  0  1  0  0  0  0  0  0  0  0  0
   -2.9510   14.6040   -0.7980 N   0  0  0  0  0  0  0  0  0  0  0  0
   -3.2540   14.9030   -2.2050 N   0  0  0  0  0  0  0  0  0  0  0  0
   -2.6710   13.8520   -3.0690 C   0  0  0  0  0  0  0  0  0  0  0  0
   -1.5480   14.3420   -4.0120 C   0  0  0  0  0  0  0  0  0  0  0  0
   -0.1620   13.6820   -3.8730 C   0  0  2  0  0  0  0  0  0  0  0  0
   -0.1150   12.2240   -3.9160 N   0  0  0  0  0  0  0  0  0  0  0  0
    0.4590   13.9390   -2.5070 C   0  0  0  0  0  0  0  0  0  0  0  0
    0.6420   15.0290   -1.9840 O   0  0  0  0  0  0  0  0  0  0  0  0
    0.3080   11.7080   -2.6800 C   0  0  0  0  0  0  0  0  0  0  0  0
    0.7930   12.7490   -1.9490 N   0  0  0  0  0  0  0  0  0  0  0  0
   -0.5030   11.4390   -5.0310 C   0  0  0  0  0  0  0  0  0  0  0  0
    0.2780   10.5440   -2.2730 O   0  0  0  0  0  0  0  0  0  0  0  0
    0.0660   11.6420   -6.2980 C   0  0  0  0  0  0  0  0  0  0  0  0
   -1.4670   10.4310   -4.8990 C   0  0  0  0  0  0  0  0  0  0  0  0
   -0.3180   10.8630   -7.3950 C   0  0  0  0  0  0  0  0  0  0  0  0
   -1.8540    9.6490   -5.9910 C   0  0  0  0  0  0  0  0  0  0  0  0
   -1.2790    9.8680   -7.2340 C   0  0  0  0  0  0  0  0  0  0  0  0
   -1.7570    8.9050   -8.5760 Cl  0  0  0  0  0  0  0  0  0  0  0  0
  1  2  1  0
  2  3  1  0
  2  4  2  0
  4  5  1  0
  3  6  2  0
  5  7  1  0
  5  8  1  0
  8  6  1  1
  8  9  1  0
  7 10  1  0
  9 10  1  0
 10 11  1  0
 11 12  1  0
 13 12  1  1
 13 14  1  0
 13 15  1  0
 15 16  2  0
 14 17  1  0
 15 18  1  0
 17 18  1  0
 14 19  1  0
 17 20  2  0
 19 21  2  0
 19 22  1  0
 21 23  1  0
 22 24  2  0
 23 25  2  0
 24 25  1  0
 25 26  1  0
M  END
>  <comRMSD>  (7) 
0.231893

>  <∆∆G>  (7) 
-7.923274

>  <N_constrained_atoms>  (7) 
25.0

>  <LE>  (7) 
-0.304741

>  <ref_pdb>  (7) 
x0104_0

>  <ref_mols>  (7) 
x1018_0_A_α,x1015_0_A_α

>  <%Rank>  (7) 
0.102951

>  <generation_date>  (7) 
nan

>  <method>  (7) 
nan

>  <submitter_email>  (7) 
nan

>  <original SMILES>  (7) 
O=C1NC(=O)N(c2ccc(Cl)cc2)C1CCN1NC2C=CC(Cl)=NN2N1

>  <ref_url>  (7) 
nan

>  <submitter_name>  (7) 
nan

>  <submitter_institution>  (7) 
nan

$$$$
x1012_0_A_α-x0724_0_A_α
     RDKit          3D

 27 29  0  0  0  0  0  0  0  0999 V2000
   -0.4280   18.2230   -4.4520 N   0  0  0  0  0  0  0  0  0  0  0  0
   -1.2640   17.1920   -4.6810 C   0  0  0  0  0  0  0  0  0  0  0  0
   -2.4670   17.4070   -4.6790 O   0  0  0  0  0  0  0  0  0  0  0  0
   -0.6960   15.9480   -4.8990 N   0  0  0  0  0  0  0  0  0  0  0  0
   -1.6020   14.8220   -4.6870 C   0  0  0  0  0  0  0  0  0  0  0  0
    0.7480   15.6660   -4.7850 C   0  0  0  0  0  0  0  0  0  0  0  0
   -1.2930   14.0730   -3.3870 C   0  0  2  0  0  0  0  0  0  0  0  0
    1.1360   14.6080   -3.7270 C   0  0  0  0  0  0  0  0  0  0  0  0
   -1.4250   15.0510   -2.1920 C   0  0  0  0  0  0  0  0  0  0  0  0
    0.1070   13.4760   -3.5460 C   0  0  1  0  0  0  0  0  0  0  0  0
    0.3680   12.4600   -2.4510 C   0  0  0  0  0  0  0  0  0  0  0  0
   -2.6990   14.9650   -1.4090 C   0  0  0  0  0  0  0  0  0  0  0  0
    0.1990   11.1810   -2.8150 O   0  0  0  0  0  0  0  0  0  0  0  0
    0.6870   12.7250   -1.3020 O   0  0  0  0  0  0  0  0  0  0  0  0
   -2.6730   15.1420   -0.0220 C   0  0  0  0  0  0  0  0  0  0  0  0
   -3.9160   14.7150   -2.0500 C   0  0  0  0  0  0  0  0  0  0  0  0
   -3.8490   15.0690    0.7210 C   0  0  0  0  0  0  0  0  0  0  0  0
   -5.0950   14.6400   -1.3130 C   0  0  0  0  0  0  0  0  0  0  0  0
   -5.0640   14.8220    0.0740 C   0  0  0  0  0  0  0  0  0  0  0  0
   -6.2630   14.7610    0.8190 N   0  0  0  0  0  0  0  0  0  0  0  0
   -7.4700   14.5250    0.2390 N   0  0  0  0  0  0  0  0  0  0  0  0
   -6.3890   14.9460    2.1730 C   0  0  0  0  0  0  0  0  0  0  0  0
   -7.7220   14.8450    2.4920 C   0  0  0  0  0  0  0  0  0  0  0  0
   -8.3390   14.5760    1.2530 C   0  0  0  0  0  0  0  0  0  0  0  0
   -8.3440   14.9980    3.8330 C   0  0  0  0  0  0  0  0  0  0  0  0
   -8.7710   13.6990    4.3340 N   0  0  0  0  0  0  0  0  0  0  0  0
   -8.6910   13.6710    5.7870 C   0  0  0  0  0  0  0  0  0  0  0  0
  1  2  1  0
  2  3  2  0
  2  4  1  0
  4  5  1  0
  4  6  1  0
  5  7  1  0
  6  8  1  0
  7  9  1  1
  7 10  1  0
  8 10  1  0
 10 11  1  1
  9 12  1  0
 11 13  1  0
 11 14  2  0
 12 15  2  0
 12 16  1  0
 15 17  1  0
 16 18  2  0
 17 19  2  0
 18 19  1  0
 19 20  1  0
 20 21  1  0
 20 22  1  0
 22 23  2  0
 21 24  2  0
 23 24  1  0
 23 25  1  0
 25 26  1  0
 26 27  1  0
M  END
>  <comRMSD>  (8) 
0.267071

>  <∆∆G>  (8) 
-8.966329

>  <N_constrained_atoms>  (8) 
26.0

>  <LE>  (8) 
-0.332086

>  <ref_pdb>  (8) 
x0104_0

>  <ref_mols>  (8) 
x1012_0_A_α,x0724_0_A_α

>  <%Rank>  (8) 
0.12011

>  <generation_date>  (8) 
nan

>  <method>  (8) 
nan

>  <submitter_email>  (8) 
nan

>  <original SMILES>  (8) 
CNCc1cnn(-c2ccc(CC3CN(C(N)=O)CCC3C(=O)O)cc2)c1

>  <ref_url>  (8) 
nan

>  <submitter_name>  (8) 
nan

>  <submitter_institution>  (8) 
nan

$$$$
x1015_0_A_α-x0438_0_A_α
     RDKit          3D

 31 34  0  0  0  0  0  0  0  0999 V2000
   -1.1750   14.2790   -4.6300 C   0  0  0  0  0  0  0  0  0  0  0  0
    0.0160   13.6530   -3.9110 C   0  0  2  0  0  0  0  0  0  0  0  0
   -0.0620   12.1990   -3.9100 N   0  0  0  0  0  0  0  0  0  0  0  0
   -0.1180   13.9220   -2.4210 C   0  0  0  0  0  0  0  0  0  0  0  0
    0.2100   15.0210   -1.8540 N   0  0  0  0  0  0  0  0  0  0  0  0
    0.2560   11.7250   -2.6370 C   0  0  0  0  0  0  0  0  0  0  0  0
    0.5010   12.8350   -1.8740 N   0  0  0  0  0  0  0  0  0  0  0  0
   -0.4590   11.4230   -5.0280 C   0  0  0  0  0  0  0  0  0  0  0  0
    0.3260   10.5650   -2.2270 O   0  0  0  0  0  0  0  0  0  0  0  0
   -0.7880   15.8810   -1.2020 C   0  0  0  0  0  0  0  0  0  0  0  0
    0.0950   11.6210   -6.3040 C   0  0  0  0  0  0  0  0  0  0  0  0
   -1.4300   10.4210   -4.8840 C   0  0  0  0  0  0  0  0  0  0  0  0
   -1.5280   15.2910    0.0100 C   0  0  0  0  0  0  0  0  0  0  0  0
   -0.3070   10.8460   -7.3940 C   0  0  0  0  0  0  0  0  0  0  0  0
   -1.8350    9.6410   -5.9690 C   0  0  0  0  0  0  0  0  0  0  0  0
   -1.2720    9.8560   -7.2220 C   0  0  0  0  0  0  0  0  0  0  0  0
   -3.0330   15.1930   -0.1610 C   0  0  0  0  0  0  0  0  0  0  0  0
   -1.7710    8.8930   -8.5560 Cl  0  0  0  0  0  0  0  0  0  0  0  0
   -3.6490   15.5090   -1.3850 C   0  0  0  0  0  0  0  0  0  0  0  0
   -3.8290   14.7730    0.9220 C   0  0  0  0  0  0  0  0  0  0  0  0
   -5.2190   14.6720    0.7470 C   0  0  0  0  0  0  0  0  0  0  0  0
   -5.0350   15.4140   -1.5690 C   0  0  0  0  0  0  0  0  0  0  0  0
   -6.1950   14.2860    1.6260 N   0  0  0  0  0  0  0  0  0  0  0  0
   -5.7810   14.9900   -0.4820 C   0  0  0  0  0  0  0  0  0  0  0  0
   -7.1260   14.7810   -0.3120 N   0  0  0  0  0  0  0  0  0  0  0  0
   -7.3350   14.3510    0.9790 C   0  0  0  0  0  0  0  0  0  0  0  0
   -8.6750   14.0100    1.5150 C   0  0  0  0  0  0  0  0  0  0  0  0
   -9.3510   15.2960    2.5560 S   0  0  0  0  0  0  0  0  0  0  0  0
   -8.1570   15.5120    3.8570 C   0  0  0  0  0  0  0  0  0  0  0  0
  -10.5540   14.7610    3.1600 O   0  0  0  0  0  0  0  0  0  0  0  0
   -9.4530   16.5120    1.7750 O   0  0  0  0  0  0  0  0  0  0  0  0
  2  1  1  6
  2  3  1  0
  2  4  1  0
  4  5  2  3
  3  6  1  0
  4  7  1  0
  6  7  1  0
  3  8  1  0
  6  9  2  0
  5 10  1  0
  8 11  2  0
  8 12  1  0
 10 13  1  0
 11 14  1  0
 12 15  2  0
 14 16  2  0
 15 16  1  0
 13 17  1  0
 16 18  1  0
 17 19  2  0
 17 20  1  0
 20 21  2  0
 19 22  1  0
 21 23  1  0
 21 24  1  0
 22 24  2  0
 24 25  1  0
 23 26  2  0
 25 26  1  0
 26 27  1  0
 28 27  1  0
 28 29  1  0
 28 30  2  0
 28 31  2  0
M  END
>  <comRMSD>  (9) 
0.214033

>  <∆∆G>  (9) 
-8.754721

>  <N_constrained_atoms>  (9) 
29.0

>  <LE>  (9) 
-0.28241

>  <ref_pdb>  (9) 
x0104_0

>  <ref_mols>  (9) 
x1015_0_A_α,x0438_0_A_α

>  <%Rank>  (9) 
0.137268

>  <generation_date>  (9) 
nan

>  <method>  (9) 
nan

>  <submitter_email>  (9) 
nan

>  <original SMILES>  (9) 
CC1C(=NCCc2ccc3[nH]c(CS(C)(=O)=O)nc3c2)NC(=O)N1c1ccc(Cl)cc1

>  <ref_url>  (9) 
nan

>  <submitter_name>  (9) 
nan

>  <submitter_institution>  (9) 
nan

$$$$
5CB5_0_A_γ-6YWK_0_E_α
     RDKit          3D

 24 25  0  0  0  0  0  0  0  0999 V2000
   -1.1640   12.6760   -4.3570 O   0  0  0  0  0  0  0  0  0  0  0  0
   -0.9350   14.0760   -4.3770 C   0  0  1  0  0  0  0  0  0  0  0  0
   -1.0890   14.7790   -3.0440 C   0  0  0  0  0  0  0  0  0  0  0  0
    0.5230   14.3880   -4.6040 C   0  0  1  0  0  0  0  0  0  0  0  0
    1.0270   13.9260   -5.8310 O   0  0  0  0  0  0  0  0  0  0  0  0
   -0.2090   15.9260   -3.0970 O   0  0  0  0  0  0  0  0  0  0  0  0
    0.5020   15.8870   -4.3450 C   0  0  2  0  0  0  0  0  0  0  0  0
   -0.1230   16.7950   -5.4180 C   0  0  0  0  0  0  0  0  0  0  0  0
   -0.2960   18.2900   -5.1860 C   0  0  0  0  0  0  0  0  0  0  0  0
    0.5880   19.0020   -6.0470 O   0  0  0  0  0  0  0  0  0  0  0  0
    0.1410   19.7820   -7.3940 S   0  0  0  0  0  0  0  0  0  0  0  0
    1.1990   20.9720   -7.6560 O   0  0  0  0  0  0  0  0  0  0  0  0
    0.0840   18.7800   -8.6540 O   0  0  0  0  0  0  0  0  0  0  0  0
   -1.4680   20.5710   -7.1810 C   0  0  0  0  0  0  0  0  0  0  0  0
   -1.6780   21.5990   -8.2960 C   0  0  0  0  0  0  0  0  0  0  0  0
   -2.8630   22.5130   -8.2820 N   0  0  0  0  0  0  0  0  0  0  0  0
   -2.9000   23.6370   -7.3380 C   0  0  0  0  0  0  0  0  0  0  0  0
   -4.1870   21.9830   -8.6370 C   0  0  0  0  0  0  0  0  0  0  0  0
   -4.0020   23.5390   -6.2520 C   0  0  0  0  0  0  0  0  0  0  0  0
   -5.1320   21.9180   -7.4150 C   0  0  0  0  0  0  0  0  0  0  0  0
   -5.2980   23.1990   -6.7960 N   0  0  0  0  0  0  0  0  0  0  0  0
   -5.6310   24.1770   -7.8190 C   0  0  0  0  0  0  0  0  0  0  0  0
   -6.8950   24.0920   -8.6940 C   0  0  0  0  0  0  0  0  0  0  0  0
   -7.1870   22.7640   -9.1200 O   0  0  0  0  0  0  0  0  0  0  0  0
  2  1  1  1
  2  3  1  0
  2  4  1  0
  4  5  1  6
  3  6  1  0
  4  7  1  0
  6  7  1  0
  7  8  1  6
  8  9  1  0
  9 10  1  0
 11 10  1  0
 11 12  1  0
 11 13  1  0
 11 14  1  0
 14 15  1  0
 15 16  1  0
 16 17  1  0
 16 18  1  0
 17 19  1  0
 18 20  1  0
 19 21  1  0
 20 21  1  0
 21 22  1  0
 22 23  1  0
 23 24  1  0
M  END
>  <comRMSD>  (10) 
0.337413

>  <∆∆G>  (10) 
-13.717034

>  <N_constrained_atoms>  (10) 
23.0

>  <LE>  (10) 
-0.571543

>  <ref_pdb>  (10) 
x0104_0

>  <ref_mols>  (10) 


>  <%Rank>  (10) 
0.154427

>  <generation_date>  (10) 
nan

>  <method>  (10) 
nan

>  <submitter_email>  (10) 
nan

>  <original SMILES>  (10) 
OCCN1CCN(CCS(O)(O)OCCC2OCC(O)C2O)CC1

>  <ref_url>  (10) 
nan

>  <submitter_name>  (10) 
nan

>  <submitter_institution>  (10) 
nan

$$$$
x0676_0_B_α-x1015_0_A_α
     RDKit          3D

 30 33  0  0  0  0  0  0  0  0999 V2000
    5.7740    6.5940   -9.1860 C   0  0  0  0  0  0  0  0  0  0  0  0
    4.7240    7.1550  -10.0810 C   0  0  0  0  0  0  0  0  0  0  0  0
    4.9680    7.7070  -11.2290 N   0  0  0  0  0  0  0  0  0  0  0  0
    3.2730    7.1320   -9.7150 C   0  0  0  0  0  0  0  0  0  0  0  0
    2.7330    8.0690  -10.7660 C   0  0  0  0  0  0  0  0  0  0  0  0
    3.7440    8.1480  -11.7280 N   0  0  0  0  0  0  0  0  0  0  0  0
    1.5750    8.6280  -10.7030 N   0  0  0  0  0  0  0  0  0  0  0  0
    3.8520    9.1680  -12.7220 C   0  0  0  0  0  0  0  0  0  0  0  0
    0.7280    8.3480   -9.5440 C   0  0  0  0  0  0  0  0  0  0  0  0
    2.9210   10.2350  -12.7810 C   0  0  0  0  0  0  0  0  0  0  0  0
    4.8730    9.1790  -13.6830 C   0  0  0  0  0  0  0  0  0  0  0  0
   -0.5810    9.1350   -9.6710 C   0  0  0  0  0  0  0  0  0  0  0  0
    3.0120   11.2500  -13.7420 C   0  0  0  0  0  0  0  0  0  0  0  0
    4.9670   10.1890  -14.6500 C   0  0  0  0  0  0  0  0  0  0  0  0
   -1.5370    8.9790   -8.4780 C   0  0  0  0  0  0  0  0  0  0  0  0
    4.0390   11.2230  -14.6790 C   0  0  0  0  0  0  0  0  0  0  0  0
   -1.1790    9.8360   -7.2850 C   0  0  0  0  0  0  0  0  0  0  0  0
   -0.2390   10.8650   -7.3930 C   0  0  0  0  0  0  0  0  0  0  0  0
   -1.7860    9.6130   -6.0460 C   0  0  0  0  0  0  0  0  0  0  0  0
    0.0880   11.6540   -6.2850 C   0  0  0  0  0  0  0  0  0  0  0  0
   -1.4550   10.4050   -4.9400 C   0  0  0  0  0  0  0  0  0  0  0  0
   -0.5110   11.4410   -5.0400 C   0  0  0  0  0  0  0  0  0  0  0  0
   -0.1860   12.2310   -3.9040 N   0  0  0  0  0  0  0  0  0  0  0  0
   -0.0220   13.6810   -3.9620 C   0  0  1  0  0  0  0  0  0  0  0  0
    0.2470   11.7280   -2.6660 C   0  0  0  0  0  0  0  0  0  0  0  0
   -1.3120   14.4420   -4.2550 C   0  0  0  0  0  0  0  0  0  0  0  0
    0.2700   10.5630   -2.2620 O   0  0  0  0  0  0  0  0  0  0  0  0
    0.6750   12.7820   -1.9170 N   0  0  0  0  0  0  0  0  0  0  0  0
    0.3970   13.9580   -2.5240 C   0  0  0  0  0  0  0  0  0  0  0  0
    0.4830   15.0530   -1.9900 O   0  0  0  0  0  0  0  0  0  0  0  0
  1  2  1  0
  2  3  2  0
  2  4  1  0
  4  5  1  0
  3  6  1  0
  5  6  1  0
  5  7  2  3
  6  8  1  0
  7  9  1  0
  8 10  2  0
  8 11  1  0
  9 12  1  0
 10 13  1  0
 11 14  2  0
 12 15  1  0
 13 16  2  0
 14 16  1  0
 15 17  1  0
 17 18  2  0
 17 19  1  0
 18 20  1  0
 19 21  2  0
 20 22  2  0
 21 22  1  0
 22 23  1  0
 23 24  1  0
 23 25  1  0
 24 26  1  1
 25 27  2  0
 25 28  1  0
 24 29  1  0
 28 29  1  0
 29 30  2  0
M  END
>  <comRMSD>  (11) 
0.191572

>  <∆∆G>  (11) 
-8.122924

>  <N_constrained_atoms>  (11) 
28.0

>  <LE>  (11) 
-0.270764

>  <ref_pdb>  (11) 
x0104_0

>  <ref_mols>  (11) 
x0676_0_B_α,x1015_0_A_α

>  <%Rank>  (11) 
0.171585

>  <generation_date>  (11) 
nan

>  <method>  (11) 
nan

>  <submitter_email>  (11) 
nan

>  <original SMILES>  (11) 
CC1=NN(c2ccccc2)C(=NCCCc2ccc(N3C(=O)NC(=O)C3C)cc2)C1

>  <ref_url>  (11) 
nan

>  <submitter_name>  (11) 
nan

>  <submitter_institution>  (11) 
nan

$$$$
x0574_0_A_α-x0852_0_B_α
     RDKit          3D

 22 24  0  0  0  0  0  0  0  0999 V2000
    0.1500   13.9980    2.0180 N   0  0  0  0  0  0  0  0  0  0  0  0
   -0.9400   14.2560    1.3350 C   0  0  0  0  0  0  0  0  0  0  0  0
   -2.0390   14.1700    1.9440 N   0  0  0  0  0  0  0  0  0  0  0  0
   -1.0280   14.7000   -0.3160 S   0  0  0  0  0  0  0  0  0  0  0  0
   -3.0720   14.4380    1.1280 C   0  0  0  0  0  0  0  0  0  0  0  0
   -2.7610   14.7710   -0.1710 C   0  0  0  0  0  0  0  0  0  0  0  0
   -4.3830   14.3830    1.5490 C   0  0  0  0  0  0  0  0  0  0  0  0
   -3.7870   15.0830   -1.0880 C   0  0  0  0  0  0  0  0  0  0  0  0
   -5.4090   14.6600    0.7090 C   0  0  0  0  0  0  0  0  0  0  0  0
   -5.1250   15.0200   -0.6180 C   0  0  0  0  0  0  0  0  0  0  0  0
   -6.7050   14.5850    1.1470 O   0  0  0  0  0  0  0  0  0  0  0  0
   -6.8990   14.2220    2.5520 C   0  0  0  0  0  0  0  0  0  0  0  0
   -7.9200   15.1260    3.1780 C   0  0  0  0  0  0  0  0  0  0  0  0
   -8.0920   15.5370    4.5380 C   0  0  0  0  0  0  0  0  0  0  0  0
   -8.7870   15.6160    2.2290 C   0  0  0  0  0  0  0  0  0  0  0  0
   -7.3740   15.1690    5.6180 O   0  0  0  0  0  0  0  0  0  0  0  0
   -9.7720   16.4890    2.5480 C   0  0  0  0  0  0  0  0  0  0  0  0
   -9.0860   16.4250    4.8640 C   0  0  0  0  0  0  0  0  0  0  0  0
   -9.3220   16.9060    6.1970 C   0  0  0  0  0  0  0  0  0  0  0  0
  -10.8340   17.0520    1.0770 Br  0  0  0  0  0  0  0  0  0  0  0  0
   -9.9000   16.8930    3.8900 C   0  0  0  0  0  0  0  0  0  0  0  0
   -9.5640   17.3420    7.2510 N   0  0  0  0  0  0  0  0  0  0  0  0
  1  2  1  0
  2  3  2  0
  2  4  1  0
  3  5  1  0
  4  6  1  0
  5  6  2  0
  5  7  1  0
  6  8  1  0
  7  9  2  0
  8 10  2  0
  9 10  1  0
  9 11  1  0
 11 12  1  0
 12 13  1  0
 13 14  2  0
 13 15  1  0
 14 16  1  0
 15 17  2  0
 14 18  1  0
 18 19  1  0
 17 20  1  0
 17 21  1  0
 18 21  2  0
 19 22  3  0
M  END
>  <comRMSD>  (12) 
0.350946

>  <∆∆G>  (12) 
-8.971958

>  <N_constrained_atoms>  (12) 
22.0

>  <LE>  (12) 
-0.407816

>  <ref_pdb>  (12) 
x0104_0

>  <ref_mols>  (12) 
x0574_0_A_α,x0852_0_B_α

>  <%Rank>  (12) 
0.188744

>  <generation_date>  (12) 
nan

>  <method>  (12) 
nan

>  <submitter_email>  (12) 
nan

>  <original SMILES>  (12) 
N#Cc1cc(Br)cc(COc2ccc3sc(N)nc3c2)c1O

>  <ref_url>  (12) 
nan

>  <submitter_name>  (12) 
nan

>  <submitter_institution>  (12) 
nan

$$$$
x0128_0_A_α-x1015_0_A_α
     RDKit          3D

 34 37  0  0  0  0  0  0  0  0999 V2000
   -6.6090   14.7830    2.5720 N   0  0  0  0  0  0  0  0  0  0  0  0
   -7.8320   15.2100    3.0540 C   0  0  0  0  0  0  0  0  0  0  0  0
   -8.8120   15.5120    2.3840 O   0  0  0  0  0  0  0  0  0  0  0  0
   -6.1390   14.7850    1.2490 C   0  0  0  0  0  0  0  0  0  0  0  0
   -7.7440   15.2400    4.4310 N   0  0  0  0  0  0  0  0  0  0  0  0
   -6.9700   14.5580    0.1660 C   0  0  0  0  0  0  0  0  0  0  0  0
   -4.7730   15.0340    1.0310 C   0  0  0  0  0  0  0  0  0  0  0  0
   -6.4560   14.5710   -1.1250 C   0  0  0  0  0  0  0  0  0  0  0  0
   -4.2540   15.0460   -0.2730 C   0  0  0  0  0  0  0  0  0  0  0  0
   -8.4960   16.0190    5.3430 C   0  0  0  0  0  0  0  0  0  0  0  0
   -5.1060   14.8080   -1.3590 C   0  0  0  0  0  0  0  0  0  0  0  0
   -9.1340   17.1780    4.8880 C   0  0  0  0  0  0  0  0  0  0  0  0
   -8.6550   15.7130    6.6890 C   0  0  0  0  0  0  0  0  0  0  0  0
   -4.6430   14.7840   -2.7900 C   0  0  0  0  0  0  0  0  0  0  0  0
   -9.8870   18.0060    5.6520 N   0  0  0  0  0  0  0  0  0  0  0  0
   -9.4230   16.5460    7.5070 C   0  0  0  0  0  0  0  0  0  0  0  0
   -3.1910   15.1830   -3.0030 C   0  0  0  0  0  0  0  0  0  0  0  0
  -10.0120   17.6680    6.9490 C   0  0  0  0  0  0  0  0  0  0  0  0
   -2.4610   14.0750   -3.7600 C   0  0  0  0  0  0  0  0  0  0  0  0
   -1.1280   14.5270   -4.3610 C   0  0  0  0  0  0  0  0  0  0  0  0
    0.0960   13.6830   -3.9610 C   0  0  2  0  0  0  0  0  0  0  0  0
   -0.0960   12.2380   -3.9120 N   0  0  0  0  0  0  0  0  0  0  0  0
    0.4620   13.9550   -2.5070 C   0  0  0  0  0  0  0  0  0  0  0  0
    0.5630   15.0510   -1.9750 O   0  0  0  0  0  0  0  0  0  0  0  0
    0.2820   11.7250   -2.6580 C   0  0  0  0  0  0  0  0  0  0  0  0
    0.6650   12.7750   -1.8810 N   0  0  0  0  0  0  0  0  0  0  0  0
   -0.4840   11.4530   -5.0270 C   0  0  0  0  0  0  0  0  0  0  0  0
    0.2910   10.5530   -2.2650 O   0  0  0  0  0  0  0  0  0  0  0  0
    0.0760   11.6440   -6.3000 C   0  0  0  0  0  0  0  0  0  0  0  0
   -1.4530   10.4470   -4.8880 C   0  0  0  0  0  0  0  0  0  0  0  0
   -0.3130   10.8620   -7.3890 C   0  0  0  0  0  0  0  0  0  0  0  0
   -1.8460    9.6620   -5.9730 C   0  0  0  0  0  0  0  0  0  0  0  0
   -1.2740    9.8710   -7.2220 C   0  0  0  0  0  0  0  0  0  0  0  0
   -1.7610    8.9020   -8.5510 Cl  0  0  0  0  0  0  0  0  0  0  0  0
  1  2  1  0
  2  3  2  0
  1  4  1  0
  2  5  1  0
  4  6  2  0
  4  7  1  0
  6  8  1  0
  7  9  2  0
  5 10  1  0
  8 11  2  0
  9 11  1  0
 10 12  2  0
 10 13  1  0
 11 14  1  0
 12 15  1  0
 13 16  2  0
 14 17  1  0
 15 18  2  0
 16 18  1  0
 17 19  1  0
 19 20  1  0
 21 20  1  1
 21 22  1  0
 21 23  1  0
 23 24  2  0
 22 25  1  0
 23 26  1  0
 25 26  1  0
 22 27  1  0
 25 28  2  0
 27 29  2  0
 27 30  1  0
 29 31  1  0
 30 32  2  0
 31 33  2  0
 32 33  1  0
 33 34  1  0
M  END
>  <comRMSD>  (13) 
0.180038

>  <∆∆G>  (13) 
-10.054519

>  <N_constrained_atoms>  (13) 
31.0

>  <LE>  (13) 
-0.295721

>  <ref_pdb>  (13) 
x0104_0

>  <ref_mols>  (13) 
x0128_0_A_α,x1015_0_A_α

>  <%Rank>  (13) 
0.205903

>  <generation_date>  (13) 
nan

>  <method>  (13) 
nan

>  <submitter_email>  (13) 
nan

>  <original SMILES>  (13) 
O=C(Nc1ccc(CCCCC2C(=O)NC(=O)N2c2ccc(Cl)cc2)cc1)Nc1cccnc1

>  <ref_url>  (13) 
nan

>  <submitter_name>  (13) 
nan

>  <submitter_institution>  (13) 
nan

$$$$
x1012_0_A_α-x0421_0_A_α
     RDKit          3D

 23 25  0  0  0  0  0  0  0  0999 V2000
   -0.2010   18.2550   -4.7540 N   0  0  0  0  0  0  0  0  0  0  0  0
   -1.1670   17.3150   -4.7970 C   0  0  0  0  0  0  0  0  0  0  0  0
   -2.3290   17.6970   -4.8560 O   0  0  0  0  0  0  0  0  0  0  0  0
   -0.7740   15.9970   -4.7530 N   0  0  0  0  0  0  0  0  0  0  0  0
   -1.7240   14.8930   -4.6100 C   0  0  0  0  0  0  0  0  0  0  0  0
    0.6470   15.6980   -4.6010 C   0  0  0  0  0  0  0  0  0  0  0  0
   -1.3870   13.8050   -3.5650 C   0  0  2  0  0  0  0  0  0  0  0  0
    0.9470   14.8010   -3.4070 C   0  0  0  0  0  0  0  0  0  0  0  0
   -1.9340   14.0730   -2.2090 N   0  0  0  0  0  0  0  0  0  0  0  0
    0.1250   13.5080   -3.4890 C   0  0  1  0  0  0  0  0  0  0  0  0
    0.3500   12.5080   -2.3720 C   0  0  0  0  0  0  0  0  0  0  0  0
   -3.0380   14.7050   -1.9860 C   0  0  0  0  0  0  0  0  0  0  0  0
    0.3740   11.2180   -2.7560 O   0  0  0  0  0  0  0  0  0  0  0  0
    0.4980   12.7840   -1.1910 O   0  0  0  0  0  0  0  0  0  0  0  0
   -3.8910   15.2890   -2.8790 N   0  0  0  0  0  0  0  0  0  0  0  0
   -3.5270   14.7930   -0.5920 C   0  0  0  0  0  0  0  0  0  0  0  0
   -2.8430   14.9770    0.6080 C   0  0  0  0  0  0  0  0  0  0  0  0
   -4.8800   14.6700   -0.3220 N   0  0  0  0  0  0  0  0  0  0  0  0
   -3.8120   14.9460    1.5860 N   0  0  0  0  0  0  0  0  0  0  0  0
   -5.0090   14.7590    0.9720 C   0  0  0  0  0  0  0  0  0  0  0  0
   -6.3600   14.6560    1.7280 C   0  0  0  0  0  0  0  0  0  0  0  0
   -7.6550   14.6460    0.9590 C   0  0  0  0  0  0  0  0  0  0  0  0
   -7.1450   13.3800    1.5840 C   0  0  0  0  0  0  0  0  0  0  0  0
  1  2  1  0
  2  3  2  0
  2  4  1  0
  4  5  1  0
  4  6  1  0
  5  7  1  0
  6  8  1  0
  7  9  1  1
  7 10  1  0
  8 10  1  0
 10 11  1  1
  9 12  2  3
 11 13  1  0
 11 14  2  0
 12 15  1  0
 12 16  1  0
 16 17  2  0
 16 18  1  0
 17 19  1  0
 18 20  2  0
 19 20  1  0
 20 21  1  0
 21 22  1  0
 21 23  1  0
 22 23  1  0
M  END
>  <comRMSD>  (14) 
0.33933

>  <∆∆G>  (14) 
-8.008782

>  <N_constrained_atoms>  (14) 
23.0

>  <LE>  (14) 
-0.348208

>  <ref_pdb>  (14) 
x0104_0

>  <ref_mols>  (14) 
x1012_0_A_α,x0421_0_A_α

>  <%Rank>  (14) 
0.223061

>  <generation_date>  (14) 
nan

>  <method>  (14) 
nan

>  <submitter_email>  (14) 
nan

>  <original SMILES>  (14) 
NC(=O)N1CCC(C(=O)O)C(N=C(N)c2c[nH]c(C3CC3)n2)C1

>  <ref_url>  (14) 
nan

>  <submitter_name>  (14) 
nan

>  <submitter_institution>  (14) 
nan

$$$$
x0417_0_B_α-x0228_0_B_β
     RDKit          3D

 25 27  0  0  0  0  0  0  0  0999 V2000
   -2.6550   31.5830  -17.0460 N   0  0  0  0  0  0  0  0  0  0  0  0
   -1.3820   31.7860  -17.7140 C   0  0  0  0  0  0  0  0  0  0  0  0
   -2.5280   30.8670  -15.7680 C   0  0  2  0  0  0  0  0  0  0  0  0
   -2.2460   29.3790  -15.8900 C   0  0  0  0  0  0  0  0  0  0  0  0
   -3.8860   30.8650  -15.0690 C   0  0  0  0  0  0  0  0  0  0  0  0
   -4.6870   31.7660  -15.1930 O   0  0  0  0  0  0  0  0  0  0  0  0
   -3.3800   28.6570  -15.1590 C   0  0  2  0  0  0  0  0  0  0  0  0
   -4.0280   29.6850  -14.3300 N   0  0  0  0  0  0  0  0  0  0  0  0
   -2.8440   27.4110  -14.4470 C   0  0  0  0  0  0  0  0  0  0  0  0
   -5.2100   29.4570  -13.5140 C   0  0  0  0  0  0  0  0  0  0  0  0
   -3.8510   26.4200  -14.4190 O   0  0  0  0  0  0  0  0  0  0  0  0
   -6.4900   29.3680  -14.0880 C   0  0  0  0  0  0  0  0  0  0  0  0
   -5.1940   29.3200  -12.1100 C   0  0  0  0  0  0  0  0  0  0  0  0
   -4.0710   29.3850  -11.4260 F   0  0  0  0  0  0  0  0  0  0  0  0
   -7.6470   29.1600  -13.3190 C   0  0  0  0  0  0  0  0  0  0  0  0
   -6.3330   29.1130  -11.3360 C   0  0  0  0  0  0  0  0  0  0  0  0
   -3.8990   25.6840  -13.2800 C   0  0  0  0  0  0  0  0  0  0  0  0
   -7.5720   29.0320  -11.9380 C   0  0  0  0  0  0  0  0  0  0  0  0
   -5.1720   25.2580  -12.8730 C   0  0  0  0  0  0  0  0  0  0  0  0
   -2.7770   25.3500  -12.5360 C   0  0  0  0  0  0  0  0  0  0  0  0
   -6.3200   25.5870  -13.6120 N   0  0  0  0  0  0  0  0  0  0  0  0
   -5.2900   24.4900  -11.7100 C   0  0  0  0  0  0  0  0  0  0  0  0
   -2.9120   24.5860  -11.3940 C   0  0  0  0  0  0  0  0  0  0  0  0
   -4.1600   24.1460  -10.9620 C   0  0  0  0  0  0  0  0  0  0  0  0
   -4.2950   23.3220   -9.7170 C   0  0  0  0  0  0  0  0  0  0  0  0
  1  2  1  0
  3  1  1  6
  3  4  1  0
  3  5  1  0
  5  6  2  0
  4  7  1  0
  5  8  1  0
  7  8  1  0
  7  9  1  1
  8 10  1  0
  9 11  1  0
 10 12  2  0
 10 13  1  0
 13 14  1  0
 12 15  1  0
 13 16  2  0
 11 17  1  0
 15 18  2  0
 16 18  1  0
 17 19  2  0
 17 20  1  0
 19 21  1  0
 19 22  1  0
 20 23  2  0
 22 24  2  0
 23 24  1  0
 24 25  1  0
M  END
>  <comRMSD>  (15) 
0.332496

>  <∆∆G>  (15) 
-6.660912

>  <N_constrained_atoms>  (15) 
25.0

>  <LE>  (15) 
-0.266436

>  <ref_pdb>  (15) 
x0104_0

>  <ref_mols>  (15) 
x0417_0_B_α,x0228_0_B_β

>  <%Rank>  (15) 
0.24022

>  <generation_date>  (15) 
nan

>  <method>  (15) 
nan

>  <submitter_email>  (15) 
nan

>  <original SMILES>  (15) 
CNC1CC(COc2ccc(C)cc2N)N(c2ccccc2F)C1=O

>  <ref_url>  (15) 
nan

>  <submitter_name>  (15) 
nan

>  <submitter_institution>  (15) 
nan

$$$$
x1012_0_A_α-x0722_0_A_α
     RDKit          3D

 24 25  0  0  0  0  0  0  0  0999 V2000
   -0.2850   18.1520   -4.7010 N   0  0  0  0  0  0  0  0  0  0  0  0
   -1.2620   17.2210   -4.7230 C   0  0  0  0  0  0  0  0  0  0  0  0
   -2.4070   17.6090   -4.8950 O   0  0  0  0  0  0  0  0  0  0  0  0
   -0.8920   15.9120   -4.5130 N   0  0  0  0  0  0  0  0  0  0  0  0
   -1.9490   14.9680   -4.0850 C   0  0  0  0  0  0  0  0  0  0  0  0
    0.4260   15.3470   -4.8490 C   0  0  0  0  0  0  0  0  0  0  0  0
   -1.4550   13.9890   -2.9900 C   0  0  2  0  0  0  0  0  0  0  0  0
    0.9030   14.3480   -3.7910 C   0  0  0  0  0  0  0  0  0  0  0  0
   -1.1090   14.5980   -1.6020 C   0  0  0  0  0  0  0  0  0  0  0  0
   -0.1730   13.2870   -3.4920 C   0  0  1  0  0  0  0  0  0  0  0  0
    0.3240   12.2860   -2.4710 C   0  0  0  0  0  0  0  0  0  0  0  0
   -2.0890   14.7210   -0.4390 C   0  0  0  0  0  0  0  0  0  0  0  0
    0.3250   11.0220   -2.9290 O   0  0  0  0  0  0  0  0  0  0  0  0
    0.6870   12.5340   -1.3350 O   0  0  0  0  0  0  0  0  0  0  0  0
   -3.4600   14.9890   -0.2680 C   0  0  0  0  0  0  0  0  0  0  0  0
   -1.6120   14.5530    0.8470 N   0  0  0  0  0  0  0  0  0  0  0  0
   -0.2550   14.2610    1.2530 C   0  0  0  0  0  0  0  0  0  0  0  0
   -4.5550   15.2690   -1.2520 C   0  0  0  0  0  0  0  0  0  0  0  0
   -2.5330   14.6850    1.7950 N   0  0  0  0  0  0  0  0  0  0  0  0
   -3.6490   14.9500    1.1400 C   0  0  0  0  0  0  0  0  0  0  0  0
   -4.8990   15.1630    1.8870 C   0  0  0  0  0  0  0  0  0  0  0  0
   -5.9080   14.6950   -0.8300 C   0  0  0  0  0  0  0  0  0  0  0  0
   -6.9580   15.3270   -0.9290 O   0  0  0  0  0  0  0  0  0  0  0  0
   -5.9200   13.4280   -0.3200 N   0  0  0  0  0  0  0  0  0  0  0  0
  1  2  1  0
  2  3  2  0
  2  4  1  0
  4  5  1  0
  4  6  1  0
  5  7  1  0
  6  8  1  0
  7  9  1  1
  7 10  1  0
  8 10  1  0
 10 11  1  1
  9 12  1  0
 11 13  1  0
 11 14  2  0
 12 15  2  0
 12 16  1  0
 16 17  1  0
 15 18  1  0
 16 19  1  0
 15 20  1  0
 19 20  2  0
 20 21  1  0
 18 22  1  0
 22 23  2  0
 22 24  1  0
M  END
>  <comRMSD>  (16) 
0.395265

>  <∆∆G>  (16) 
-10.043452

>  <N_constrained_atoms>  (16) 
24.0

>  <LE>  (16) 
-0.418477

>  <ref_pdb>  (16) 
x0104_0

>  <ref_mols>  (16) 
x1012_0_A_α,x0722_0_A_α

>  <%Rank>  (16) 
0.257378

>  <generation_date>  (16) 
nan

>  <method>  (16) 
nan

>  <submitter_email>  (16) 
nan

>  <original SMILES>  (16) 
Cc1nn(C)c(CC2CN(C(N)=O)CCC2C(=O)O)c1CC(N)=O

>  <ref_url>  (16) 
nan

>  <submitter_name>  (16) 
nan

>  <submitter_institution>  (16) 
nan

$$$$
4iqy_A_0_A_γ-x0421_0_A_α
     RDKit          3D

 19 21  0  0  0  0  0  0  0  0999 V2000
   -0.8260   12.5670   -3.9400 O   0  0  0  0  0  0  0  0  0  0  0  0
   -0.8230   14.0010   -4.0440 C   0  0  1  0  0  0  0  0  0  0  0  0
   -0.3930   14.6580   -2.7370 C   0  0  2  0  0  0  0  0  0  0  0  0
    0.3550   14.3950   -4.9280 C   0  0  2  0  0  0  0  0  0  0  0  0
    1.4170   13.4540   -4.7940 O   0  0  0  0  0  0  0  0  0  0  0  0
   -1.3910   14.6730   -1.6840 N   0  0  0  0  0  0  0  0  0  0  0  0
    0.0190   15.9640   -3.1730 O   0  0  0  0  0  0  0  0  0  0  0  0
    0.7470   15.7780   -4.3940 C   0  0  2  0  0  0  0  0  0  0  0  0
    0.4420   16.9340   -5.3340 C   0  0  0  0  0  0  0  0  0  0  0  0
   -2.6680   14.8540   -1.6700 C   0  0  0  0  0  0  0  0  0  0  0  0
   -3.4330   15.0810   -2.7860 N   0  0  0  0  0  0  0  0  0  0  0  0
   -3.4380   14.8520   -0.4260 C   0  0  0  0  0  0  0  0  0  0  0  0
   -2.9260   14.9880    0.8470 C   0  0  0  0  0  0  0  0  0  0  0  0
   -4.8260   14.7040   -0.3560 N   0  0  0  0  0  0  0  0  0  0  0  0
   -3.9860   14.9240    1.6870 N   0  0  0  0  0  0  0  0  0  0  0  0
   -5.1010   14.7510    0.9370 C   0  0  0  0  0  0  0  0  0  0  0  0
   -6.5040   14.6270    1.5830 C   0  0  0  0  0  0  0  0  0  0  0  0
   -7.7420   14.6760    0.7270 C   0  0  0  0  0  0  0  0  0  0  0  0
   -7.2990   13.3760    1.3390 C   0  0  0  0  0  0  0  0  0  0  0  0
  2  1  1  1
  2  3  1  0
  2  4  1  0
  4  5  1  1
  3  6  1  1
  3  7  1  0
  4  8  1  0
  7  8  1  0
  8  9  1  6
  6 10  2  3
 10 11  1  0
 10 12  1  0
 12 13  2  0
 12 14  1  0
 13 15  1  0
 14 16  2  0
 15 16  1  0
 16 17  1  0
 17 18  1  0
 17 19  1  0
 18 19  1  0
M  END
>  <comRMSD>  (17) 
0.274984

>  <∆∆G>  (17) 
-6.645805

>  <N_constrained_atoms>  (17) 
19.0

>  <LE>  (17) 
-0.349779

>  <ref_pdb>  (17) 
x0104_0

>  <ref_mols>  (17) 
x0421_0_A_α

>  <%Rank>  (17) 
0.274537

>  <generation_date>  (17) 
nan

>  <method>  (17) 
nan

>  <submitter_email>  (17) 
nan

>  <original SMILES>  (17) 
CC1OC(N=C(N)c2c[nH]c(C3CC3)n2)C(O)C1O

>  <ref_url>  (17) 
nan

>  <submitter_name>  (17) 
nan

>  <submitter_institution>  (17) 
nan

$$$$
x1012_0_A_α-x0681_0_A_α
     RDKit          3D

 24 26  0  0  0  0  0  0  0  0999 V2000
   -0.2360   18.2700   -4.7600 N   0  0  0  0  0  0  0  0  0  0  0  0
   -1.2020   17.3340   -4.8020 C   0  0  0  0  0  0  0  0  0  0  0  0
   -2.3620   17.7050   -4.8780 O   0  0  0  0  0  0  0  0  0  0  0  0
   -0.7960   16.0290   -4.7370 N   0  0  0  0  0  0  0  0  0  0  0  0
   -1.8480   15.0170   -4.5350 C   0  0  0  0  0  0  0  0  0  0  0  0
    0.5950   15.5920   -4.7150 C   0  0  0  0  0  0  0  0  0  0  0  0
   -1.5120   13.7840   -3.6540 C   0  0  2  0  0  0  0  0  0  0  0  0
    0.8740   14.7410   -3.4930 C   0  0  0  0  0  0  0  0  0  0  0  0
   -2.1110   13.8730   -2.2980 N   0  0  0  0  0  0  0  0  0  0  0  0
    0.0110   13.4760   -3.5430 C   0  0  1  0  0  0  0  0  0  0  0  0
    0.2580   12.4990   -2.4080 C   0  0  0  0  0  0  0  0  0  0  0  0
   -3.1380   14.5560   -1.8740 C   0  0  0  0  0  0  0  0  0  0  0  0
    0.2810   11.2030   -2.7670 O   0  0  0  0  0  0  0  0  0  0  0  0
    0.4300   12.7930   -1.2340 O   0  0  0  0  0  0  0  0  0  0  0  0
   -3.9650   15.4210   -2.5590 N   0  0  0  0  0  0  0  0  0  0  0  0
   -3.4890   14.3250   -0.3770 C   0  0  2  0  0  0  0  0  0  0  0  0
   -4.6360   13.3480   -0.3800 C   0  0  0  0  0  0  0  0  0  0  0  0
   -3.8240   15.5530    0.4860 C   0  0  0  0  0  0  0  0  0  0  0  0
   -5.6490   13.4060    0.5310 N   0  0  0  0  0  0  0  0  0  0  0  0
   -4.4270   15.1100    1.8080 C   0  0  0  0  0  0  0  0  0  0  0  0
   -4.8260   12.3460   -1.2170 N   0  0  0  0  0  0  0  0  0  0  0  0
   -5.7470   14.3830    1.5760 C   0  0  0  0  0  0  0  0  0  0  0  0
   -6.5220   12.3960    0.2750 C   0  0  0  0  0  0  0  0  0  0  0  0
   -5.9970   11.7500   -0.8140 C   0  0  0  0  0  0  0  0  0  0  0  0
  1  2  1  0
  2  3  2  0
  2  4  1  0
  4  5  1  0
  4  6  1  0
  5  7  1  0
  6  8  1  0
  7  9  1  1
  7 10  1  0
  8 10  1  0
 10 11  1  1
  9 12  2  3
 11 13  1  0
 11 14  2  0
 12 15  1  0
 16 12  1  6
 16 17  1  0
 16 18  1  0
 17 19  1  0
 18 20  1  0
 17 21  2  0
 19 22  1  0
 20 22  1  0
 19 23  1  0
 21 24  1  0
 23 24  2  0
M  END
>  <comRMSD>  (18) 
0.378658

>  <∆∆G>  (18) 
-9.125996

>  <N_constrained_atoms>  (18) 
24.0

>  <LE>  (18) 
-0.38025

>  <ref_pdb>  (18) 
x0104_0

>  <ref_mols>  (18) 
x1012_0_A_α,x0681_0_A_α

>  <%Rank>  (18) 
0.291695

>  <generation_date>  (18) 
nan

>  <method>  (18) 
nan

>  <submitter_email>  (18) 
nan

>  <original SMILES>  (18) 
NC(=O)N1CCC(C(=O)O)C(N=C(N)C2CCCn3ccnc32)C1

>  <ref_url>  (18) 
nan

>  <submitter_name>  (18) 
nan

>  <submitter_institution>  (18) 
nan

$$$$
x0685_0_A_α-x1015_0_A_α
     RDKit          3D

 27 29  0  0  0  0  0  0  0  0999 V2000
   -6.0020   14.6320    2.5990 N   0  0  0  0  0  0  0  0  0  0  0  0
   -7.4240   14.8520    2.8360 C   0  0  0  0  0  0  0  0  0  0  0  0
   -8.1120   13.5360    3.1540 C   0  0  0  0  0  0  0  0  0  0  0  0
   -5.3700   14.7990    1.3920 C   0  0  0  0  0  0  0  0  0  0  0  0
   -3.9910   14.9150    1.3330 C   0  0  0  0  0  0  0  0  0  0  0  0
   -6.1540   14.8350    0.2930 N   0  0  0  0  0  0  0  0  0  0  0  0
   -3.3780   15.0690    0.1100 C   0  0  0  0  0  0  0  0  0  0  0  0
   -5.5310   14.9900   -0.9000 C   0  0  0  0  0  0  0  0  0  0  0  0
   -4.1580   15.1060   -1.0320 C   0  0  0  0  0  0  0  0  0  0  0  0
   -3.5080   15.2550   -2.2800 C   0  0  0  0  0  0  0  0  0  0  0  0
   -2.8390   15.3430   -3.2620 C   0  0  0  0  0  0  0  0  0  0  0  0
   -1.8900   15.4080   -4.3760 C   0  0  0  0  0  0  0  0  0  0  0  0
   -1.3750   14.0030   -4.6650 C   0  0  0  0  0  0  0  0  0  0  0  0
    0.0250   13.6320   -4.1110 C   0  0  2  0  0  0  0  0  0  0  0  0
    0.1270   12.1790   -4.0140 N   0  0  0  0  0  0  0  0  0  0  0  0
    0.2320   14.0070   -2.6420 C   0  0  0  0  0  0  0  0  0  0  0  0
    0.3180   15.1400   -2.1990 O   0  0  0  0  0  0  0  0  0  0  0  0
    0.2220   11.7610   -2.6770 C   0  0  0  0  0  0  0  0  0  0  0  0
    0.3410   12.8760   -1.9000 N   0  0  0  0  0  0  0  0  0  0  0  0
   -0.3460   11.3810   -5.0840 C   0  0  0  0  0  0  0  0  0  0  0  0
    0.2020   10.6150   -2.2140 O   0  0  0  0  0  0  0  0  0  0  0  0
    0.1500   11.5530   -6.3810 C   0  0  0  0  0  0  0  0  0  0  0  0
   -1.3280   10.3950   -4.8820 C   0  0  0  0  0  0  0  0  0  0  0  0
   -0.3100   10.7710   -7.4420 C   0  0  0  0  0  0  0  0  0  0  0  0
   -1.7930    9.6070   -5.9410 C   0  0  0  0  0  0  0  0  0  0  0  0
   -1.2800    9.8000   -7.2200 C   0  0  0  0  0  0  0  0  0  0  0  0
   -1.8470    8.8390   -8.5250 Cl  0  0  0  0  0  0  0  0  0  0  0  0
  1  2  1  0
  2  3  1  0
  1  4  1  0
  4  5  2  0
  4  6  1  0
  5  7  1  0
  6  8  2  0
  7  9  2  0
  8  9  1  0
  9 10  1  0
 10 11  3  0
 11 12  1  0
 12 13  1  0
 14 13  1  1
 14 15  1  0
 14 16  1  0
 16 17  2  0
 15 18  1  0
 16 19  1  0
 18 19  1  0
 15 20  1  0
 18 21  2  0
 20 22  2  0
 20 23  1  0
 22 24  1  0
 23 25  2  0
 24 26  2  0
 25 26  1  0
 26 27  1  0
M  END
>  <comRMSD>  (19) 
0.268387

>  <∆∆G>  (19) 
-7.778139

>  <N_constrained_atoms>  (19) 
26.0

>  <LE>  (19) 
-0.288079

>  <ref_pdb>  (19) 
x0104_0

>  <ref_mols>  (19) 
x0685_0_A_α,x1015_0_A_α

>  <%Rank>  (19) 
0.308854

>  <generation_date>  (19) 
nan

>  <method>  (19) 
nan

>  <submitter_email>  (19) 
nan

>  <original SMILES>  (19) 
CCNc1ccc(C#CCCC2C(=O)NC(=O)N2c2ccc(Cl)cc2)cn1

>  <ref_url>  (19) 
nan

>  <submitter_name>  (19) 
nan

>  <submitter_institution>  (19) 
nan

$$$$
x0253_0_A_α-x0662_0_A_α
     RDKit          3D

 23 24  0  0  0  0  0  0  0  0999 V2000
    0.3370   12.0530   -5.5150 N   0  0  0  0  0  0  0  0  0  0  0  0
    1.0730   11.6690   -6.5950 C   0  0  0  0  0  0  0  0  0  0  0  0
    2.2100   12.0740   -6.6850 O   0  0  0  0  0  0  0  0  0  0  0  0
    0.9040   12.8500   -4.4330 C   0  0  0  0  0  0  0  0  0  0  0  0
    0.8240   12.2770   -3.0300 C   0  0  0  0  0  0  0  0  0  0  0  0
    0.4690   10.7510   -7.5890 C   0  0  0  0  0  0  0  0  0  0  0  0
    1.2150   12.8470   -2.0260 O   0  0  0  0  0  0  0  0  0  0  0  0
    0.2690   11.0580   -2.9520 O   0  0  0  0  0  0  0  0  0  0  0  0
   -0.4900    9.8360   -7.1640 C   0  0  0  0  0  0  0  0  0  0  0  0
    0.8470   10.7980   -8.9340 C   0  0  0  0  0  0  0  0  0  0  0  0
   -1.0740    8.9630   -8.0900 C   0  0  0  0  0  0  0  0  0  0  0  0
    0.2770    9.9390   -9.8690 C   0  0  0  0  0  0  0  0  0  0  0  0
   -2.1090    7.9780   -7.6360 C   0  0  0  0  0  0  0  0  0  0  0  0
    0.7090   10.0280  -11.3120 C   0  0  0  0  0  0  0  0  0  0  0  0
   -0.6880    9.0200   -9.4400 C   0  0  0  0  0  0  0  0  0  0  0  0
    2.0730    9.3890  -11.5570 C   0  0  0  0  0  0  0  0  0  0  0  0
    2.4720    8.4490  -10.8520 O   0  0  0  0  0  0  0  0  0  0  0  0
    2.8890    9.9080  -12.6600 C   0  0  0  0  0  0  0  0  0  0  0  0
    3.8490    9.1780  -13.2490 N   0  0  0  0  0  0  0  0  0  0  0  0
    2.8020   11.2020  -13.2500 C   0  0  0  0  0  0  0  0  0  0  0  0
    4.3560    9.9950  -14.1910 N   0  0  0  0  0  0  0  0  0  0  0  0
    3.7590   11.2200  -14.2320 C   0  0  0  0  0  0  0  0  0  0  0  0
    5.4300    9.5200  -15.0270 C   0  0  0  0  0  0  0  0  0  0  0  0
  1  2  1  0
  2  3  2  0
  1  4  1  0
  4  5  1  0
  2  6  1  0
  5  7  2  0
  5  8  1  0
  6  9  2  0
  6 10  1  0
  9 11  1  0
 10 12  2  0
 11 13  1  0
 12 14  1  0
 11 15  2  0
 12 15  1  0
 14 16  1  0
 16 17  2  0
 16 18  1  0
 18 19  2  0
 18 20  1  0
 19 21  1  0
 20 22  2  0
 21 22  1  0
 21 23  1  0
M  END
>  <comRMSD>  (20) 
0.197742

>  <∆∆G>  (20) 
-6.956991

>  <N_constrained_atoms>  (20) 
22.0

>  <LE>  (20) 
-0.302478

>  <ref_pdb>  (20) 
x0104_0

>  <ref_mols>  (20) 
x0253_0_A_α,x0662_0_A_α

>  <%Rank>  (20) 
0.326012

>  <generation_date>  (20) 
nan

>  <method>  (20) 
nan

>  <submitter_email>  (20) 
nan

>  <original SMILES>  (20) 
Cc1cc(CC(=O)c2ccn(C)n2)cc(C(=O)NCC(=O)O)c1

>  <ref_url>  (20) 
nan

>  <submitter_name>  (20) 
nan

>  <submitter_institution>  (20) 
nan

$$$$
x1015_0_A_α-x0676_0_B_α
     RDKit          3D

 30 33  0  0  0  0  0  0  0  0999 V2000
   -1.3080   14.4340   -4.2560 C   0  0  0  0  0  0  0  0  0  0  0  0
   -0.0160   13.6800   -3.9630 C   0  0  2  0  0  0  0  0  0  0  0  0
   -0.1710   12.2290   -3.9050 N   0  0  0  0  0  0  0  0  0  0  0  0
    0.3910   13.9610   -2.5220 C   0  0  0  0  0  0  0  0  0  0  0  0
    0.4740   15.0560   -1.9880 O   0  0  0  0  0  0  0  0  0  0  0  0
    0.2490   11.7290   -2.6630 C   0  0  0  0  0  0  0  0  0  0  0  0
    0.6570   12.7860   -1.9070 N   0  0  0  0  0  0  0  0  0  0  0  0
   -0.5240   11.4380   -5.0330 C   0  0  0  0  0  0  0  0  0  0  0  0
    0.2770   10.5640   -2.2570 O   0  0  0  0  0  0  0  0  0  0  0  0
    0.0690   11.6580   -6.2820 C   0  0  0  0  0  0  0  0  0  0  0  0
   -1.4700   10.4130   -4.9350 C   0  0  0  0  0  0  0  0  0  0  0  0
   -0.2720   10.8790   -7.3950 C   0  0  0  0  0  0  0  0  0  0  0  0
   -1.8130    9.6310   -6.0460 C   0  0  0  0  0  0  0  0  0  0  0  0
   -1.2170    9.8570   -7.2890 C   0  0  0  0  0  0  0  0  0  0  0  0
   -1.5960    9.0060   -8.4790 C   0  0  0  0  0  0  0  0  0  0  0  0
   -0.6640    9.0770   -9.7010 C   0  0  0  0  0  0  0  0  0  0  0  0
    0.6680    8.3330   -9.5190 C   0  0  0  0  0  0  0  0  0  0  0  0
    1.5450    8.5890  -10.6570 N   0  0  0  0  0  0  0  0  0  0  0  0
    2.7020    8.0430  -10.7420 C   0  0  0  0  0  0  0  0  0  0  0  0
    3.2710    7.0980   -9.7120 C   0  0  0  0  0  0  0  0  0  0  0  0
    3.6930    8.1540  -11.7230 N   0  0  0  0  0  0  0  0  0  0  0  0
    4.9350    7.7220  -11.2370 N   0  0  0  0  0  0  0  0  0  0  0  0
    4.7130    7.1510  -10.0940 C   0  0  0  0  0  0  0  0  0  0  0  0
    3.7660    9.1830  -12.7190 C   0  0  0  0  0  0  0  0  0  0  0  0
    5.7800    6.5910   -9.2220 C   0  0  0  0  0  0  0  0  0  0  0  0
    2.8680   10.2790  -12.7180 C   0  0  0  0  0  0  0  0  0  0  0  0
    4.7220    9.1740  -13.7390 C   0  0  0  0  0  0  0  0  0  0  0  0
    2.9330   11.2990  -13.6780 C   0  0  0  0  0  0  0  0  0  0  0  0
    4.7910   10.1890  -14.7040 C   0  0  0  0  0  0  0  0  0  0  0  0
    3.9000   11.2530  -14.6740 C   0  0  0  0  0  0  0  0  0  0  0  0
  2  1  1  1
  2  3  1  0
  2  4  1  0
  4  5  2  0
  3  6  1  0
  4  7  1  0
  6  7  1  0
  3  8  1  0
  6  9  2  0
  8 10  2  0
  8 11  1  0
 10 12  1  0
 11 13  2  0
 12 14  2  0
 13 14  1  0
 14 15  1  0
 15 16  1  0
 16 17  1  0
 17 18  1  0
 18 19  2  3
 19 20  1  0
 19 21  1  0
 21 22  1  0
 20 23  1  0
 22 23  2  0
 21 24  1  0
 23 25  1  0
 24 26  2  0
 24 27  1  0
 26 28  1  0
 27 29  2  0
 28 30  2  0
 29 30  1  0
M  END
>  <comRMSD>  (21) 
0.197579

>  <∆∆G>  (21) 
-7.435282

>  <N_constrained_atoms>  (21) 
28.0

>  <LE>  (21) 
-0.247843

>  <ref_pdb>  (21) 
x0104_0

>  <ref_mols>  (21) 
x1015_0_A_α,x0676_0_B_α

>  <%Rank>  (21) 
0.343171

>  <generation_date>  (21) 
nan

>  <method>  (21) 
nan

>  <submitter_email>  (21) 
nan

>  <original SMILES>  (21) 
CC1=NN(c2ccccc2)C(=NCCCc2ccc(N3C(=O)NC(=O)C3C)cc2)C1

>  <ref_url>  (21) 
nan

>  <submitter_name>  (21) 
nan

>  <submitter_institution>  (21) 
nan

$$$$
x0628_0_A_α-x0290_0_A_α
     RDKit          3D

 26 27  0  0  0  0  0  0  0  0999 V2000
   -1.0250    9.1580   -7.2790 C   0  0  0  0  0  0  0  0  0  0  0  0
   -0.9540   10.3180   -6.3670 C   0  0  0  0  0  0  0  0  0  0  0  0
   -1.8400   10.5130   -5.3400 N   0  0  0  0  0  0  0  0  0  0  0  0
   -0.0200   11.2590   -6.4740 N   0  0  0  0  0  0  0  0  0  0  0  0
   -0.3320   12.0890   -5.4550 N   0  0  0  0  0  0  0  0  0  0  0  0
   -1.4360   11.6390   -4.7620 C   0  0  0  0  0  0  0  0  0  0  0  0
   -2.0780   12.2910   -3.5550 C   0  0  0  0  0  0  0  0  0  0  0  0
    0.5010   13.2580   -5.2570 C   0  0  0  0  0  0  0  0  0  0  0  0
    1.6800   12.9990   -4.3300 C   0  0  0  0  0  0  0  0  0  0  0  0
   -2.0660   13.8390   -3.5140 C   0  0  0  0  0  0  0  0  0  0  0  0
    1.2700   12.2700   -3.0800 C   0  0  0  0  0  0  0  0  0  0  0  0
   -1.0010   14.4680   -2.5810 C   0  0  0  0  0  0  0  0  0  0  0  0
    0.5860   11.2580   -2.9990 O   0  0  0  0  0  0  0  0  0  0  0  0
    1.7630   12.8820   -1.9930 O   0  0  0  0  0  0  0  0  0  0  0  0
   -1.3190   14.5080   -1.0870 C   0  0  0  0  0  0  0  0  0  0  0  0
   -0.2780   14.4840   -0.1490 C   0  0  0  0  0  0  0  0  0  0  0  0
   -2.6320   14.5710   -0.6000 C   0  0  0  0  0  0  0  0  0  0  0  0
   -0.5930   14.5160    1.1990 C   0  0  0  0  0  0  0  0  0  0  0  0
   -2.8630   14.6020    0.7730 C   0  0  0  0  0  0  0  0  0  0  0  0
   -4.1360   14.6600    1.3380 N   0  0  0  0  0  0  0  0  0  0  0  0
   -1.8520   14.5720    1.6790 N   0  0  0  0  0  0  0  0  0  0  0  0
   -5.3750   14.4460    0.8180 C   0  0  0  0  0  0  0  0  0  0  0  0
   -5.5000   14.5650   -0.4040 O   0  0  0  0  0  0  0  0  0  0  0  0
   -6.5620   14.0560    1.7080 C   0  0  0  0  0  0  0  0  0  0  0  0
   -7.8430   13.7830    0.9970 N   0  0  0  0  0  0  0  0  0  0  0  0
   -8.5980   14.9920    0.6740 C   0  0  0  0  0  0  0  0  0  0  0  0
  1  2  1  0
  2  3  1  0
  2  4  2  0
  4  5  1  0
  3  6  2  0
  5  6  1  0
  6  7  1  0
  5  8  1  0
  8  9  1  0
  7 10  1  0
  9 11  1  0
 10 12  1  0
 11 13  2  0
 11 14  1  0
 12 15  1  0
 15 16  2  0
 15 17  1  0
 16 18  1  0
 17 19  2  0
 19 20  1  0
 18 21  2  0
 19 21  1  0
 20 22  1  0
 22 23  2  0
 22 24  1  0
 24 25  1  0
 25 26  1  0
M  END
>  <comRMSD>  (22) 
0.274935

>  <∆∆G>  (22) 
-8.236192

>  <N_constrained_atoms>  (22) 
25.0

>  <LE>  (22) 
-0.316777

>  <ref_pdb>  (22) 
x0104_0

>  <ref_mols>  (22) 
x0628_0_A_α,x0290_0_A_α

>  <%Rank>  (22) 
0.360329

>  <generation_date>  (22) 
nan

>  <method>  (22) 
nan

>  <submitter_email>  (22) 
nan

>  <original SMILES>  (22) 
CNCC(=O)Nc1cc(CCCc2nc(C)nn2CCC(=O)O)ccn1

>  <ref_url>  (22) 
nan

>  <submitter_name>  (22) 
nan

>  <submitter_institution>  (22) 
nan

$$$$
6YWK_0_E_α-5CMS_0_K_γ
     RDKit          3D

 24 25  0  0  0  0  0  0  0  0999 V2000
    1.1950   20.9370   -7.6350 O   0  0  0  0  0  0  0  0  0  0  0  0
    0.1480   19.7430   -7.3600 S   0  0  0  0  0  0  0  0  0  0  0  0
    0.6940   19.0400   -6.0020 O   0  0  0  0  0  0  0  0  0  0  0  0
    0.1110   18.7600   -8.6360 O   0  0  0  0  0  0  0  0  0  0  0  0
   -1.4260   20.5940   -7.1730 C   0  0  0  0  0  0  0  0  0  0  0  0
   -1.4440   21.9450   -7.9070 C   0  0  0  0  0  0  0  0  0  0  0  0
   -0.0420   18.2100   -5.1050 C   0  0  0  0  0  0  0  0  0  0  0  0
    0.1380   16.7620   -5.5330 C   0  0  0  0  0  0  0  0  0  0  0  0
   -2.6890   22.7140   -8.2070 N   0  0  0  0  0  0  0  0  0  0  0  0
   -3.1450   23.6940   -7.2340 C   0  0  0  0  0  0  0  0  0  0  0  0
   -3.8110   22.0120   -8.8490 C   0  0  0  0  0  0  0  0  0  0  0  0
    0.6520   15.6640   -4.5810 C   0  0  1  0  0  0  0  0  0  0  0  0
   -4.2750   23.1650   -6.3140 C   0  0  0  0  0  0  0  0  0  0  0  0
   -4.9240   21.5330   -7.8770 C   0  0  0  0  0  0  0  0  0  0  0  0
    0.0650   15.7980   -3.2670 O   0  0  0  0  0  0  0  0  0  0  0  0
    0.3410   14.2340   -5.0680 C   0  0  1  0  0  0  0  0  0  0  0  0
    1.3690   13.3020   -4.6860 O   0  0  0  0  0  0  0  0  0  0  0  0
   -5.4480   22.6290   -7.0430 N   0  0  0  0  0  0  0  0  0  0  0  0
   -0.6930   14.6130   -2.9850 C   0  0  0  0  0  0  0  0  0  0  0  0
   -0.9350   13.9080   -4.3100 C   0  0  2  0  0  0  0  0  0  0  0  0
   -5.8040   23.7870   -7.8860 C   0  0  0  0  0  0  0  0  0  0  0  0
   -1.1460   12.5060   -4.1670 O   0  0  0  0  0  0  0  0  0  0  0  0
   -6.8940   23.6390   -8.9570 C   0  0  0  0  0  0  0  0  0  0  0  0
   -7.2540   22.2790   -9.1620 O   0  0  0  0  0  0  0  0  0  0  0  0
  2  1  1  0
  2  3  1  0
  2  4  1  0
  2  5  1  0
  5  6  1  0
  3  7  1  0
  7  8  1  0
  6  9  1  0
  9 10  1  0
  9 11  1  0
 12  8  1  6
 10 13  1  0
 11 14  1  0
 12 15  1  0
 12 16  1  0
 16 17  1  1
 13 18  1  0
 14 18  1  0
 15 19  1  0
 16 20  1  0
 19 20  1  0
 18 21  1  0
 20 22  1  1
 21 23  1  0
 23 24  1  0
M  END
>  <comRMSD>  (23) 
0.323864

>  <∆∆G>  (23) 
-11.648108

>  <N_constrained_atoms>  (23) 
23.0

>  <LE>  (23) 
-0.485338

>  <ref_pdb>  (23) 
x0104_0

>  <ref_mols>  (23) 


>  <%Rank>  (23) 
0.377488

>  <generation_date>  (23) 
nan

>  <method>  (23) 
nan

>  <submitter_email>  (23) 
nan

>  <original SMILES>  (23) 
OCCN1CCN(CCS(O)(O)OCCC2OCC(O)C2O)CC1

>  <ref_url>  (23) 
nan

>  <submitter_name>  (23) 
nan

>  <submitter_institution>  (23) 
nan

$$$$
x0465_0_A_α-x0676_0_B_α
     RDKit          3D

 28 30  0  0  0  0  0  0  0  0999 V2000
    2.0430   13.2330   -4.9140 C   0  0  0  0  0  0  0  0  0  0  0  0
    0.7130   12.5440   -4.6670 C   0  0  1  0  0  0  0  0  0  0  0  0
    0.6580   11.4260   -5.5730 O   0  0  0  0  0  0  0  0  0  0  0  0
    0.6860   12.0790   -3.2070 C   0  0  0  0  0  0  0  0  0  0  0  0
    1.0510   12.7700   -2.2650 O   0  0  0  0  0  0  0  0  0  0  0  0
    0.2220   10.8220   -3.0390 O   0  0  0  0  0  0  0  0  0  0  0  0
   -0.5590   10.7880   -5.6940 C   0  0  0  0  0  0  0  0  0  0  0  0
   -0.6410    9.6950   -6.5800 C   0  0  0  0  0  0  0  0  0  0  0  0
   -1.6790   11.2050   -4.9660 C   0  0  0  0  0  0  0  0  0  0  0  0
    0.5160    9.3800   -7.2400 O   0  0  0  0  0  0  0  0  0  0  0  0
   -1.8560    9.0280   -6.7220 C   0  0  0  0  0  0  0  0  0  0  0  0
   -2.8890   10.5260   -5.1220 C   0  0  0  0  0  0  0  0  0  0  0  0
    0.6170    9.6790   -8.6370 C   0  0  0  0  0  0  0  0  0  0  0  0
   -2.9750    9.4430   -5.9950 C   0  0  0  0  0  0  0  0  0  0  0  0
    0.7690    8.3950   -9.4640 C   0  0  0  0  0  0  0  0  0  0  0  0
    1.6030    8.6670  -10.6330 N   0  0  0  0  0  0  0  0  0  0  0  0
    2.7390    8.0760  -10.7310 C   0  0  0  0  0  0  0  0  0  0  0  0
    3.2770    7.0990   -9.7120 C   0  0  0  0  0  0  0  0  0  0  0  0
    3.7290    8.1530  -11.7120 N   0  0  0  0  0  0  0  0  0  0  0  0
    4.9650    7.7150  -11.2170 N   0  0  0  0  0  0  0  0  0  0  0  0
    4.7290    7.1440  -10.0760 C   0  0  0  0  0  0  0  0  0  0  0  0
    3.8240    9.1780  -12.7080 C   0  0  0  0  0  0  0  0  0  0  0  0
    5.7830    6.5810   -9.1890 C   0  0  0  0  0  0  0  0  0  0  0  0
    2.9010   10.2530  -12.7590 C   0  0  0  0  0  0  0  0  0  0  0  0
    4.8310    9.1820  -13.6790 C   0  0  0  0  0  0  0  0  0  0  0  0
    2.9880   11.2680  -13.7230 C   0  0  0  0  0  0  0  0  0  0  0  0
    4.9220   10.1910  -14.6480 C   0  0  0  0  0  0  0  0  0  0  0  0
    4.0020   11.2350  -14.6680 C   0  0  0  0  0  0  0  0  0  0  0  0
  2  1  1  1
  2  3  1  0
  2  4  1  0
  4  5  2  0
  4  6  1  0
  3  7  1  0
  7  8  2  0
  7  9  1  0
  8 10  1  0
  8 11  1  0
  9 12  2  0
 10 13  1  0
 11 14  2  0
 12 14  1  0
 13 15  1  0
 15 16  1  0
 16 17  2  3
 17 18  1  0
 17 19  1  0
 19 20  1  0
 18 21  1  0
 20 21  2  0
 19 22  1  0
 21 23  1  0
 22 24  2  0
 22 25  1  0
 24 26  1  0
 25 27  2  0
 26 28  2  0
 27 28  1  0
M  END
>  <comRMSD>  (24) 
0.171996

>  <∆∆G>  (24) 
-7.042775

>  <N_constrained_atoms>  (24) 
26.0

>  <LE>  (24) 
-0.251528

>  <ref_pdb>  (24) 
x0104_0

>  <ref_mols>  (24) 
x0465_0_A_α,x0676_0_B_α

>  <%Rank>  (24) 
0.394647

>  <generation_date>  (24) 
nan

>  <method>  (24) 
nan

>  <submitter_email>  (24) 
nan

>  <original SMILES>  (24) 
CC1=NN(c2ccccc2)C(=NCCOc2ccccc2O[C@H](C)C(=O)O)C1

>  <ref_url>  (24) 
nan

>  <submitter_name>  (24) 
nan

>  <submitter_institution>  (24) 
nan

$$$$
5cms_B_1_B_γ-x0421_0_A_α
     RDKit          3D

 19 21  0  0  0  0  0  0  0  0999 V2000
   -0.4990   12.2620   -3.9610 O   0  0  0  0  0  0  0  0  0  0  0  0
   -0.9110   13.6470   -3.9450 C   0  0  1  0  0  0  0  0  0  0  0  0
   -0.3720   14.3640   -2.7010 C   0  0  2  0  0  0  0  0  0  0  0  0
   -0.2150   14.3290   -5.1080 C   0  0  2  0  0  0  0  0  0  0  0  0
    0.7080   13.4400   -5.7380 O   0  0  0  0  0  0  0  0  0  0  0  0
   -1.3550   14.4740   -1.6440 N   0  0  0  0  0  0  0  0  0  0  0  0
    0.1110   15.6430   -3.1390 O   0  0  0  0  0  0  0  0  0  0  0  0
    0.4810   15.5580   -4.5160 C   0  0  2  0  0  0  0  0  0  0  0  0
    0.1020   16.8690   -5.1870 C   0  0  0  0  0  0  0  0  0  0  0  0
   -2.6170   14.7670   -1.6390 C   0  0  0  0  0  0  0  0  0  0  0  0
   -3.3510   15.0630   -2.7590 N   0  0  0  0  0  0  0  0  0  0  0  0
   -3.3960   14.8160   -0.4020 C   0  0  0  0  0  0  0  0  0  0  0  0
   -2.9000   15.0020    0.8690 C   0  0  0  0  0  0  0  0  0  0  0  0
   -4.7880   14.6650   -0.3440 N   0  0  0  0  0  0  0  0  0  0  0  0
   -3.9710   14.9610    1.6990 N   0  0  0  0  0  0  0  0  0  0  0  0
   -5.0780   14.7560    0.9440 C   0  0  0  0  0  0  0  0  0  0  0  0
   -6.4860   14.6440    1.5760 C   0  0  0  0  0  0  0  0  0  0  0  0
   -7.7150   14.6820    0.7080 C   0  0  0  0  0  0  0  0  0  0  0  0
   -7.2820   13.3920    1.3450 C   0  0  0  0  0  0  0  0  0  0  0  0
  2  1  1  1
  2  3  1  0
  2  4  1  0
  4  5  1  1
  3  6  1  1
  3  7  1  0
  4  8  1  0
  7  8  1  0
  8  9  1  6
  6 10  2  3
 10 11  1  0
 10 12  1  0
 12 13  2  0
 12 14  1  0
 13 15  1  0
 14 16  2  0
 15 16  1  0
 16 17  1  0
 17 18  1  0
 17 19  1  0
 18 19  1  0
M  END
>  <comRMSD>  (25) 
0.288067

>  <∆∆G>  (25) 
-6.329742

>  <N_constrained_atoms>  (25) 
19.0

>  <LE>  (25) 
-0.333144

>  <ref_pdb>  (25) 
x0104_0

>  <ref_mols>  (25) 
x0421_0_A_α

>  <%Rank>  (25) 
0.411805

>  <generation_date>  (25) 
nan

>  <method>  (25) 
nan

>  <submitter_email>  (25) 
nan

>  <original SMILES>  (25) 
CC1OC(N=C(N)c2c[nH]c(C3CC3)n2)C(O)C1O

>  <ref_url>  (25) 
nan

>  <submitter_name>  (25) 
nan

>  <submitter_institution>  (25) 
nan

$$$$
x0852_0_B_α-x0574_0_A_α
     RDKit          3D

 22 24  0  0  0  0  0  0  0  0999 V2000
   -9.6090   17.2680    7.2510 N   0  0  0  0  0  0  0  0  0  0  0  0
   -9.4400   16.8630    6.1720 C   0  0  0  0  0  0  0  0  0  0  0  0
   -9.2630   16.4550    4.8040 C   0  0  0  0  0  0  0  0  0  0  0  0
   -8.1980   15.6330    4.3790 C   0  0  0  0  0  0  0  0  0  0  0  0
  -10.1950   16.9080    3.8650 C   0  0  0  0  0  0  0  0  0  0  0  0
   -7.3120   15.2080    5.3370 O   0  0  0  0  0  0  0  0  0  0  0  0
   -8.0680   15.2850    3.0060 C   0  0  0  0  0  0  0  0  0  0  0  0
  -10.0650   16.5470    2.5300 C   0  0  0  0  0  0  0  0  0  0  0  0
  -11.3000   17.1440    1.2360 Br  0  0  0  0  0  0  0  0  0  0  0  0
   -6.9650   14.4590    2.3790 C   0  0  0  0  0  0  0  0  0  0  0  0
   -9.0230   15.7500    2.1080 C   0  0  0  0  0  0  0  0  0  0  0  0
   -6.7550   14.8250    0.9840 O   0  0  0  0  0  0  0  0  0  0  0  0
   -5.4310   14.8160    0.5950 C   0  0  0  0  0  0  0  0  0  0  0  0
   -4.4300   14.5540    1.4880 C   0  0  0  0  0  0  0  0  0  0  0  0
   -5.0930   15.0760   -0.7400 C   0  0  0  0  0  0  0  0  0  0  0  0
   -3.0990   14.5240    1.1010 C   0  0  0  0  0  0  0  0  0  0  0  0
   -3.7430   15.0550   -1.1700 C   0  0  0  0  0  0  0  0  0  0  0  0
   -2.7490   14.7640   -0.2090 C   0  0  0  0  0  0  0  0  0  0  0  0
   -2.0830   14.2610    1.9590 N   0  0  0  0  0  0  0  0  0  0  0  0
   -0.9630   14.2680    1.3540 C   0  0  0  0  0  0  0  0  0  0  0  0
   -1.0230   14.6230   -0.3250 S   0  0  0  0  0  0  0  0  0  0  0  0
    0.1280   14.0070    2.0430 N   0  0  0  0  0  0  0  0  0  0  0  0
  1  2  3  0
  2  3  1  0
  3  4  2  0
  3  5  1  0
  4  6  1  0
  4  7  1  0
  5  8  2  0
  8  9  1  0
  7 10  1  0
  7 11  2  0
  8 11  1  0
 10 12  1  0
 12 13  1  0
 13 14  2  0
 13 15  1  0
 14 16  1  0
 15 17  2  0
 16 18  2  0
 17 18  1  0
 16 19  1  0
 19 20  2  0
 18 21  1  0
 20 21  1  0
 20 22  1  0
M  END
>  <comRMSD>  (26) 
0.438162

>  <∆∆G>  (26) 
-11.372679

>  <N_constrained_atoms>  (26) 
22.0

>  <LE>  (26) 
-0.51694

>  <ref_pdb>  (26) 
x0104_0

>  <ref_mols>  (26) 
x0852_0_B_α,x0574_0_A_α

>  <%Rank>  (26) 
0.428964

>  <generation_date>  (26) 
nan

>  <method>  (26) 
nan

>  <submitter_email>  (26) 
nan

>  <original SMILES>  (26) 
N#Cc1cc(Br)cc(COc2ccc3sc(N)nc3c2)c1O

>  <ref_url>  (26) 
nan

>  <submitter_name>  (26) 
nan

>  <submitter_institution>  (26) 
nan

$$$$
5cb5_L_0_L_γ-x0421_0_A_α
     RDKit          3D

 19 21  0  0  0  0  0  0  0  0999 V2000
   -0.5390   12.5020   -3.9770 O   0  0  0  0  0  0  0  0  0  0  0  0
   -0.7460   13.9120   -4.1910 C   0  0  1  0  0  0  0  0  0  0  0  0
   -0.3940   14.7250   -2.9500 C   0  0  2  0  0  0  0  0  0  0  0  0
    0.3240   14.4130   -5.1640 C   0  0  2  0  0  0  0  0  0  0  0  0
    1.4260   13.5100   -5.2250 O   0  0  0  0  0  0  0  0  0  0  0  0
   -1.3730   14.6870   -1.8740 N   0  0  0  0  0  0  0  0  0  0  0  0
   -0.1550   16.0250   -3.5010 O   0  0  0  0  0  0  0  0  0  0  0  0
    0.7220   15.7900   -4.6030 C   0  0  2  0  0  0  0  0  0  0  0  0
    0.6110   16.9690   -5.5590 C   0  0  0  0  0  0  0  0  0  0  0  0
   -2.6500   14.8780   -1.8350 C   0  0  0  0  0  0  0  0  0  0  0  0
   -3.4190   15.1750   -2.9290 N   0  0  0  0  0  0  0  0  0  0  0  0
   -3.4220   14.8110   -0.5990 C   0  0  0  0  0  0  0  0  0  0  0  0
   -2.9080   14.7470    0.6780 C   0  0  0  0  0  0  0  0  0  0  0  0
   -4.8230   14.7960   -0.5440 N   0  0  0  0  0  0  0  0  0  0  0  0
   -3.9830   14.6870    1.4910 N   0  0  0  0  0  0  0  0  0  0  0  0
   -5.1030   14.7180    0.7410 C   0  0  0  0  0  0  0  0  0  0  0  0
   -6.5040   14.6550    1.4040 C   0  0  0  0  0  0  0  0  0  0  0  0
   -7.7510   14.6790    0.5650 C   0  0  0  0  0  0  0  0  0  0  0  0
   -7.3210   13.4070    1.2380 C   0  0  0  0  0  0  0  0  0  0  0  0
  2  1  1  1
  2  3  1  0
  2  4  1  0
  4  5  1  1
  3  6  1  1
  3  7  1  0
  4  8  1  0
  7  8  1  0
  8  9  1  6
  6 10  2  3
 10 11  1  0
 10 12  1  0
 12 13  2  0
 12 14  1  0
 13 15  1  0
 14 16  2  0
 15 16  1  0
 16 17  1  0
 17 18  1  0
 17 19  1  0
 18 19  1  0
M  END
>  <comRMSD>  (27) 
0.290839

>  <∆∆G>  (27) 
-6.274523

>  <N_constrained_atoms>  (27) 
19.0

>  <LE>  (27) 
-0.330238

>  <ref_pdb>  (27) 
x0104_0

>  <ref_mols>  (27) 
x0421_0_A_α

>  <%Rank>  (27) 
0.446122

>  <generation_date>  (27) 
nan

>  <method>  (27) 
nan

>  <submitter_email>  (27) 
nan

>  <original SMILES>  (27) 
CC1OC(N=C(N)c2c[nH]c(C3CC3)n2)C(O)C1O

>  <ref_url>  (27) 
nan

>  <submitter_name>  (27) 
nan

>  <submitter_institution>  (27) 
nan

$$$$
x0128_0_A_α-x0805_0_A_α
     RDKit          3D

 23 25  0  0  0  0  0  0  0  0999 V2000
   -6.8120   14.5340    2.5390 N   0  0  0  0  0  0  0  0  0  0  0  0
   -7.9080   15.1760    3.0940 C   0  0  0  0  0  0  0  0  0  0  0  0
   -8.9120   15.5050    2.4790 O   0  0  0  0  0  0  0  0  0  0  0  0
   -6.2570   14.7810    1.2760 C   0  0  0  0  0  0  0  0  0  0  0  0
   -7.6900   15.3970    4.4480 N   0  0  0  0  0  0  0  0  0  0  0  0
   -7.1400   14.8580    0.1870 C   0  0  0  0  0  0  0  0  0  0  0  0
   -4.8900   14.9570    1.0630 C   0  0  0  0  0  0  0  0  0  0  0  0
   -6.6680   15.1180   -1.1000 C   0  0  0  0  0  0  0  0  0  0  0  0
   -4.4340   15.2050   -0.2230 C   0  0  0  0  0  0  0  0  0  0  0  0
   -8.4970   16.1240    5.3530 C   0  0  0  0  0  0  0  0  0  0  0  0
   -5.3100   15.2930   -1.3000 C   0  0  0  0  0  0  0  0  0  0  0  0
   -9.1650   17.2640    4.9080 C   0  0  0  0  0  0  0  0  0  0  0  0
   -8.6780   15.7760    6.6880 C   0  0  0  0  0  0  0  0  0  0  0  0
   -3.1000   15.3480   -0.4320 O   0  0  0  0  0  0  0  0  0  0  0  0
   -9.9640   18.0430    5.6700 N   0  0  0  0  0  0  0  0  0  0  0  0
   -9.4960   16.5590    7.5050 C   0  0  0  0  0  0  0  0  0  0  0  0
   -2.7880   14.5590   -1.5030 C   0  0  0  0  0  0  0  0  0  0  0  0
  -10.1110   17.6720    6.9560 C   0  0  0  0  0  0  0  0  0  0  0  0
   -3.7530   13.5990   -1.8230 C   0  0  0  0  0  0  0  0  0  0  0  0
   -1.6230   14.6630   -2.2530 C   0  0  0  0  0  0  0  0  0  0  0  0
   -1.4300   13.8040   -3.3320 C   0  0  0  0  0  0  0  0  0  0  0  0
   -3.5570   12.7440   -2.8970 C   0  0  0  0  0  0  0  0  0  0  0  0
   -2.3930   12.8480   -3.6530 C   0  0  0  0  0  0  0  0  0  0  0  0
  1  2  1  0
  2  3  2  0
  1  4  1  0
  2  5  1  0
  4  6  2  0
  4  7  1  0
  6  8  1  0
  7  9  2  0
  5 10  1  0
  8 11  2  0
  9 11  1  0
 10 12  2  0
 10 13  1  0
  9 14  1  0
 12 15  1  0
 13 16  2  0
 14 17  1  0
 15 18  2  0
 16 18  1  0
 17 19  2  0
 17 20  1  0
 20 21  2  0
 19 22  1  0
 21 23  1  0
 22 23  2  0
M  END
>  <comRMSD>  (28) 
0.340482

>  <∆∆G>  (28) 
-6.286297

>  <N_constrained_atoms>  (28) 
23.0

>  <LE>  (28) 
-0.273317

>  <ref_pdb>  (28) 
x0104_0

>  <ref_mols>  (28) 
x0128_0_A_α,x0805_0_A_α

>  <%Rank>  (28) 
0.463281

>  <generation_date>  (28) 
nan

>  <method>  (28) 
nan

>  <submitter_email>  (28) 
nan

>  <original SMILES>  (28) 
O=C(Nc1cccnc1)Nc1cccc(Oc2ccccc2)c1

>  <ref_url>  (28) 
nan

>  <submitter_name>  (28) 
nan

>  <submitter_institution>  (28) 
nan

$$$$
x0626_0_A_α-x1015_0_A_α
     RDKit          3D

 28 30  0  0  0  0  0  0  0  0999 V2000
   -5.0840   14.8770    1.4790 N   0  0  0  0  0  0  0  0  0  0  0  0
   -6.2040   14.6890    0.7070 C   0  0  0  0  0  0  0  0  0  0  0  0
   -6.2800   14.7880   -0.5160 O   0  0  0  0  0  0  0  0  0  0  0  0
   -3.8490   14.8530    0.9300 C   0  0  0  0  0  0  0  0  0  0  0  0
   -7.3960   14.3320    1.5680 C   0  0  0  0  0  0  0  0  0  0  0  0
   -2.6880   14.7860    1.5380 N   0  0  0  0  0  0  0  0  0  0  0  0
   -3.8490   14.9150   -0.7760 S   0  0  0  0  0  0  0  0  0  0  0  0
   -8.7110   14.6540    0.8820 C   0  0  0  0  0  0  0  0  0  0  0  0
   -2.1500   14.8410   -0.7250 C   0  0  0  0  0  0  0  0  0  0  0  0
   -1.7160   14.7870    0.5840 C   0  0  0  0  0  0  0  0  0  0  0  0
   -0.3160   14.7230    0.9840 C   0  0  0  0  0  0  0  0  0  0  0  0
    0.3270   13.8360   -0.0320 C   0  0  0  0  0  0  0  0  0  0  0  0
    1.3540   14.5530   -0.8870 C   0  0  0  0  0  0  0  0  0  0  0  0
    0.7380   14.8340   -2.1600 N   0  0  0  0  0  0  0  0  0  0  0  0
    0.5880   13.7400   -2.7570 C   0  0  0  0  0  0  0  0  0  0  0  0
   -0.0320   13.5510   -4.1180 C   0  0  2  0  0  0  0  0  0  0  0  0
    0.9640   12.5490   -2.2600 N   0  0  0  0  0  0  0  0  0  0  0  0
   -1.3130   14.3800   -4.2090 C   0  0  0  0  0  0  0  0  0  0  0  0
   -0.2670   12.1100   -4.0370 N   0  0  0  0  0  0  0  0  0  0  0  0
    0.2550   11.5710   -2.8440 C   0  0  0  0  0  0  0  0  0  0  0  0
    0.1320   10.4370   -2.3770 O   0  0  0  0  0  0  0  0  0  0  0  0
   -0.6080   11.3430   -5.1600 C   0  0  0  0  0  0  0  0  0  0  0  0
   -0.0200   11.5590   -6.4120 C   0  0  0  0  0  0  0  0  0  0  0  0
   -1.5610   10.3250   -5.0380 C   0  0  0  0  0  0  0  0  0  0  0  0
   -0.3760   10.7770   -7.5130 C   0  0  0  0  0  0  0  0  0  0  0  0
   -1.9220    9.5420   -6.1320 C   0  0  0  0  0  0  0  0  0  0  0  0
   -1.3270    9.7710   -7.3660 C   0  0  0  0  0  0  0  0  0  0  0  0
   -1.7750    8.8050   -8.7120 Cl  0  0  0  0  0  0  0  0  0  0  0  0
  1  2  1  0
  2  3  2  0
  1  4  1  0
  2  5  1  0
  4  6  2  0
  4  7  1  0
  5  8  1  0
  7  9  1  0
  6 10  1  0
  9 10  2  0
 10 11  1  0
 11 12  1  0
 12 13  1  0
 13 14  1  0
 14 15  2  3
 15 16  1  0
 15 17  1  0
 16 18  1  1
 16 19  1  0
 17 20  1  0
 19 20  1  0
 20 21  2  0
 19 22  1  0
 22 23  2  0
 22 24  1  0
 23 25  1  0
 24 26  2  0
 25 27  2  0
 26 27  1  0
 27 28  1  0
M  END
>  <comRMSD>  (29) 
0.272618

>  <∆∆G>  (29) 
-12.048181

>  <N_constrained_atoms>  (29) 
26.0

>  <LE>  (29) 
-0.430292

>  <ref_pdb>  (29) 
x0104_0

>  <ref_mols>  (29) 
x0626_0_A_α,x1015_0_A_α

>  <%Rank>  (29) 
0.480439

>  <generation_date>  (29) 
nan

>  <method>  (29) 
nan

>  <submitter_email>  (29) 
nan

>  <original SMILES>  (29) 
CCC(=O)Nc1nc(CCCN=C2NC(=O)N(c3ccc(Cl)cc3)C2C)cs1

>  <ref_url>  (29) 
nan

>  <submitter_name>  (29) 
nan

>  <submitter_institution>  (29) 
nan

$$$$
x0471_0_A_α-x1015_0_A_α
     RDKit          3D

 33 36  0  0  0  0  0  0  0  0999 V2000
   -8.7550   14.1150    2.8580 N   0  0  0  0  0  0  0  0  0  0  0  0
   -9.1460   15.1530    3.6700 C   0  0  0  0  0  0  0  0  0  0  0  0
   -9.4320   16.2500    3.2080 O   0  0  0  0  0  0  0  0  0  0  0  0
   -8.8200   14.2660    1.4190 C   0  0  0  0  0  0  0  0  0  0  0  0
   -9.2320   14.8400    5.1650 C   0  0  0  0  0  0  0  0  0  0  0  0
   -7.4520   14.5530    0.9020 C   0  0  0  0  0  0  0  0  0  0  0  0
   -9.6370   13.3890    5.4210 C   0  0  0  0  0  0  0  0  0  0  0  0
   -7.9390   15.1980    5.8860 C   0  0  0  0  0  0  0  0  0  0  0  0
   -7.1700   14.7170   -0.4340 N   0  0  0  0  0  0  0  0  0  0  0  0
   -6.3580   14.6900    1.6220 N   0  0  0  0  0  0  0  0  0  0  0  0
   -5.3420   14.9490    0.7390 C   0  0  0  0  0  0  0  0  0  0  0  0
   -5.8240   14.9700   -0.5630 C   0  0  0  0  0  0  0  0  0  0  0  0
   -5.0090   15.2080   -1.6680 C   0  0  0  0  0  0  0  0  0  0  0  0
   -3.9800   15.1780    0.9790 C   0  0  0  0  0  0  0  0  0  0  0  0
   -3.6420   15.4290   -1.4270 C   0  0  0  0  0  0  0  0  0  0  0  0
   -3.1380   15.4180   -0.1140 C   0  0  0  0  0  0  0  0  0  0  0  0
   -2.7190   15.6710   -2.5980 C   0  0  0  0  0  0  0  0  0  0  0  0
   -2.3760   14.3390   -3.2730 C   0  0  0  0  0  0  0  0  0  0  0  0
   -1.2400   14.4880   -4.2960 C   0  0  0  0  0  0  0  0  0  0  0  0
    0.0290   13.6800   -3.9660 C   0  0  2  0  0  0  0  0  0  0  0  0
   -0.1330   12.2310   -3.9160 N   0  0  0  0  0  0  0  0  0  0  0  0
    0.4690   13.9490   -2.5300 C   0  0  0  0  0  0  0  0  0  0  0  0
    0.5690   15.0420   -1.9950 O   0  0  0  0  0  0  0  0  0  0  0  0
    0.2870   11.7210   -2.6760 C   0  0  0  0  0  0  0  0  0  0  0  0
    0.7410   12.7670   -1.9320 N   0  0  0  0  0  0  0  0  0  0  0  0
   -0.5160   11.4400   -5.0300 C   0  0  0  0  0  0  0  0  0  0  0  0
    0.2790   10.5580   -2.2700 O   0  0  0  0  0  0  0  0  0  0  0  0
    0.0540   11.6450   -6.2940 C   0  0  0  0  0  0  0  0  0  0  0  0
   -1.4770   10.4260   -4.8990 C   0  0  0  0  0  0  0  0  0  0  0  0
   -0.3220   10.8640   -7.3930 C   0  0  0  0  0  0  0  0  0  0  0  0
   -1.8560    9.6430   -5.9930 C   0  0  0  0  0  0  0  0  0  0  0  0
   -1.2790    9.8630   -7.2360 C   0  0  0  0  0  0  0  0  0  0  0  0
   -1.7480    8.8990   -8.5780 Cl  0  0  0  0  0  0  0  0  0  0  0  0
  1  2  1  0
  2  3  2  0
  1  4  1  0
  2  5  1  0
  4  6  1  0
  5  7  1  0
  5  8  1  0
  6  9  1  0
  6 10  2  0
 10 11  1  0
  9 12  1  0
 11 12  2  0
 12 13  1  0
 11 14  1  0
 13 15  2  0
 14 16  2  0
 15 16  1  0
 15 17  1  0
 17 18  1  0
 18 19  1  0
 20 19  1  1
 20 21  1  0
 20 22  1  0
 22 23  2  0
 21 24  1  0
 22 25  1  0
 24 25  1  0
 21 26  1  0
 24 27  2  0
 26 28  2  0
 26 29  1  0
 28 30  1  0
 29 31  2  0
 30 32  2  0
 31 32  1  0
 32 33  1  0
M  END
>  <comRMSD>  (30) 
0.261616

>  <∆∆G>  (30) 
-7.171645

>  <N_constrained_atoms>  (30) 
31.0

>  <LE>  (30) 
-0.217323

>  <ref_pdb>  (30) 
x0104_0

>  <ref_mols>  (30) 
x0471_0_A_α,x1015_0_A_α

>  <%Rank>  (30) 
0.497598

>  <generation_date>  (30) 
nan

>  <method>  (30) 
nan

>  <submitter_email>  (30) 
nan

>  <original SMILES>  (30) 
CC(C)C(=O)NCc1nc2ccc(CCCC3C(=O)NC(=O)N3c3ccc(Cl)cc3)cc2[nH]1

>  <ref_url>  (30) 
nan

>  <submitter_name>  (30) 
nan

>  <submitter_institution>  (30) 
nan

$$$$
x0574_0_A_α-x0128_0_A_α
     RDKit          3D

 21 23  0  0  0  0  0  0  0  0999 V2000
    0.1490   14.0030    2.0980 N   0  0  0  0  0  0  0  0  0  0  0  0
   -0.9170   14.2670    1.3710 C   0  0  0  0  0  0  0  0  0  0  0  0
   -2.0460   14.2890    1.9490 N   0  0  0  0  0  0  0  0  0  0  0  0
   -0.9260   14.5870   -0.3160 S   0  0  0  0  0  0  0  0  0  0  0  0
   -3.0360   14.5510    1.0700 C   0  0  0  0  0  0  0  0  0  0  0  0
   -2.6500   14.7580   -0.2430 C   0  0  0  0  0  0  0  0  0  0  0  0
   -4.3650   14.6130    1.4280 C   0  0  0  0  0  0  0  0  0  0  0  0
   -3.6150   15.0470   -1.2280 C   0  0  0  0  0  0  0  0  0  0  0  0
   -5.3330   14.8790    0.5000 C   0  0  0  0  0  0  0  0  0  0  0  0
   -4.9650   15.1030   -0.8300 C   0  0  0  0  0  0  0  0  0  0  0  0
   -6.6520   14.9280    0.8290 O   0  0  0  0  0  0  0  0  0  0  0  0
   -6.9120   14.5290    2.1730 C   0  0  0  0  0  0  0  0  0  0  0  0
   -8.0420   15.2350    2.9300 C   0  0  0  0  0  0  0  0  0  0  0  0
   -9.0400   15.6590    2.3650 O   0  0  0  0  0  0  0  0  0  0  0  0
   -7.7570   15.3170    4.2840 N   0  0  0  0  0  0  0  0  0  0  0  0
   -8.4890   16.0370    5.2620 C   0  0  0  0  0  0  0  0  0  0  0  0
   -9.1630   17.2000    4.8700 C   0  0  0  0  0  0  0  0  0  0  0  0
   -8.6040   15.6820    6.6040 C   0  0  0  0  0  0  0  0  0  0  0  0
   -9.9050   17.9850    5.6830 N   0  0  0  0  0  0  0  0  0  0  0  0
   -9.3610   16.4740    7.4700 C   0  0  0  0  0  0  0  0  0  0  0  0
   -9.9880   17.6050    6.9710 C   0  0  0  0  0  0  0  0  0  0  0  0
  1  2  1  0
  2  3  2  0
  2  4  1  0
  3  5  1  0
  4  6  1  0
  5  6  2  0
  5  7  1  0
  6  8  1  0
  7  9  2  0
  8 10  2  0
  9 10  1  0
  9 11  1  0
 11 12  1  0
 12 13  1  0
 13 14  2  0
 13 15  1  0
 15 16  1  0
 16 17  2  0
 16 18  1  0
 17 19  1  0
 18 20  2  0
 19 21  2  0
 20 21  1  0
M  END
>  <comRMSD>  (31) 
0.436696

>  <∆∆G>  (31) 
-11.058053

>  <N_constrained_atoms>  (31) 
21.0

>  <LE>  (31) 
-0.526574

>  <ref_pdb>  (31) 
x0104_0

>  <ref_mols>  (31) 
x0574_0_A_α,x0128_0_A_α

>  <%Rank>  (31) 
0.514756

>  <generation_date>  (31) 
nan

>  <method>  (31) 
nan

>  <submitter_email>  (31) 
nan

>  <original SMILES>  (31) 
Nc1nc2cc(OCC(=O)Nc3cccnc3)ccc2s1

>  <ref_url>  (31) 
nan

>  <submitter_name>  (31) 
nan

>  <submitter_institution>  (31) 
nan

$$$$
x0465_0_A_α-x0591_0_A_α
     RDKit          3D

 28 29  0  0  0  0  0  0  0  0999 V2000
    2.3170   12.9920   -4.8630 C   0  0  0  0  0  0  0  0  0  0  0  0
    0.8670   12.5420   -4.6220 C   0  0  1  0  0  0  0  0  0  0  0  0
    0.6780   11.4990   -5.6210 O   0  0  0  0  0  0  0  0  0  0  0  0
    0.7780   12.1660   -3.1230 C   0  0  0  0  0  0  0  0  0  0  0  0
   -0.0230   13.7740   -4.9350 C   0  0  0  0  0  0  0  0  0  0  0  0
    0.9950   12.9020   -2.1730 O   0  0  0  0  0  0  0  0  0  0  0  0
    0.4460   10.8790   -2.8710 O   0  0  0  0  0  0  0  0  0  0  0  0
   -1.4840   13.5160   -4.9890 N   0  0  0  0  0  0  0  0  0  0  0  0
   -0.4980   10.7950   -5.7050 C   0  0  0  0  0  0  0  0  0  0  0  0
   -2.3900   14.7370   -5.0380 S   0  0  1  0  0  0  0  0  0  0  0  0
   -0.6420    9.7670   -6.6390 C   0  0  0  0  0  0  0  0  0  0  0  0
   -1.5670   11.0990   -4.8560 C   0  0  0  0  0  0  0  0  0  0  0  0
    0.3680    9.4530   -7.4630 F   0  0  0  0  0  0  0  0  0  0  0  0
   -1.2330   15.9310   -4.8320 N   0  0  0  0  0  0  0  0  0  0  0  0
   -3.1280   15.2270   -6.1760 O   0  0  0  0  0  0  0  0  0  0  0  0
   -1.8260    9.0480   -6.7380 C   0  0  0  0  0  0  0  0  0  0  0  0
   -2.7610   10.3790   -4.9540 C   0  0  0  0  0  0  0  0  0  0  0  0
   -3.4640   14.7210   -3.6400 C   0  0  0  0  0  0  0  0  0  0  0  0
   -2.8920    9.3540   -5.8930 C   0  0  0  0  0  0  0  0  0  0  0  0
   -2.9870   14.5840   -2.3360 C   0  0  0  0  0  0  0  0  0  0  0  0
   -4.8220   14.8560   -3.8860 C   0  0  0  0  0  0  0  0  0  0  0  0
   -3.8970   14.5910   -1.2680 C   0  0  0  0  0  0  0  0  0  0  0  0
   -5.7260   14.8670   -2.8240 C   0  0  0  0  0  0  0  0  0  0  0  0
   -5.2710   14.7360   -1.5160 C   0  0  0  0  0  0  0  0  0  0  0  0
   -6.2280   14.7460   -0.3790 C   0  0  0  0  0  0  0  0  0  0  0  0
   -5.6970   14.5570    0.8730 N   0  0  0  0  0  0  0  0  0  0  0  0
   -7.4270   14.9100   -0.5830 O   0  0  0  0  0  0  0  0  0  0  0  0
   -6.5730   14.4780    2.0150 C   0  0  0  0  0  0  0  0  0  0  0  0
  2  1  1  1
  2  3  1  0
  2  4  1  0
  2  5  1  0
  4  6  2  0
  4  7  1  0
  5  8  1  0
  3  9  1  0
  8 10  2  0
  9 11  2  0
  9 12  1  0
 11 13  1  0
 10 14  1  1
 10 15  2  0
 11 16  1  0
 12 17  2  0
 10 18  1  0
 16 19  2  0
 17 19  1  0
 18 20  2  0
 18 21  1  0
 20 22  1  0
 21 23  2  0
 22 24  2  0
 23 24  1  0
 24 25  1  0
 25 26  1  0
 25 27  2  0
 26 28  1  0
M  END
>  <comRMSD>  (32) 
0.274553

>  <∆∆G>  (32) 
-5.528306

>  <N_constrained_atoms>  (32) 
27.0

>  <LE>  (32) 
-0.19744

>  <ref_pdb>  (32) 
x0104_0

>  <ref_mols>  (32) 
x0465_0_A_α,x0591_0_A_α

>  <%Rank>  (32) 
0.531915

>  <generation_date>  (32) 
nan

>  <method>  (32) 
nan

>  <submitter_email>  (32) 
nan

>  <original SMILES>  (32) 
CNC(=O)c1ccc(S(N)(=O)=NC[C@](C)(Oc2ccccc2F)C(=O)O)cc1

>  <ref_url>  (32) 
nan

>  <submitter_name>  (32) 
nan

>  <submitter_institution>  (32) 
nan

$$$$
x0290_0_A_α-x0864_0_A_α
     RDKit          3D

 27 28  0  0  0  0  0  0  0  0999 V2000
   -7.7300   13.8230    0.8420 N   0  0  0  0  0  0  0  0  0  0  0  0
   -8.6120   14.9760    0.7430 C   0  0  0  0  0  0  0  0  0  0  0  0
   -6.5700   14.1010    1.7050 C   0  0  0  0  0  0  0  0  0  0  0  0
   -5.3460   14.4460    0.8530 C   0  0  0  0  0  0  0  0  0  0  0  0
   -5.4670   14.5060   -0.3790 O   0  0  0  0  0  0  0  0  0  0  0  0
   -4.1210   14.6760    1.3870 N   0  0  0  0  0  0  0  0  0  0  0  0
   -2.8370   14.6220    0.8450 C   0  0  0  0  0  0  0  0  0  0  0  0
   -1.8390   14.5550    1.7610 N   0  0  0  0  0  0  0  0  0  0  0  0
   -2.5790   14.6300   -0.5150 C   0  0  0  0  0  0  0  0  0  0  0  0
   -0.5700   14.4940    1.3050 C   0  0  0  0  0  0  0  0  0  0  0  0
   -1.2540   14.5650   -0.9710 C   0  0  0  0  0  0  0  0  0  0  0  0
   -0.9480   14.5690   -2.4500 C   0  0  0  0  0  0  0  0  0  0  0  0
   -0.2300   14.4970   -0.0300 C   0  0  0  0  0  0  0  0  0  0  0  0
    0.4470   15.1080   -2.8250 C   0  0  0  0  0  0  0  0  0  0  0  0
    1.6240   14.2650   -2.3020 C   0  0  0  0  0  0  0  0  0  0  0  0
    1.1690   12.9010   -2.0810 N   0  0  0  0  0  0  0  0  0  0  0  0
    0.7610   12.2380   -3.0880 C   0  0  0  0  0  0  0  0  0  0  0  0
    0.6440   12.6690   -4.5380 C   0  0  0  0  0  0  0  0  0  0  0  0
    0.3760   10.9720   -2.8350 O   0  0  0  0  0  0  0  0  0  0  0  0
   -0.1000   11.7180   -5.3570 N   0  0  0  0  0  0  0  0  0  0  0  0
   -1.2930   11.1840   -4.9030 C   0  0  0  0  0  0  0  0  0  0  0  0
    0.5150   11.2850   -6.5160 C   0  0  0  0  0  0  0  0  0  0  0  0
    1.5470   11.7610   -6.9600 O   0  0  0  0  0  0  0  0  0  0  0  0
   -1.8810   10.1750   -5.5580 C   0  0  0  0  0  0  0  0  0  0  0  0
   -0.1290   10.1560   -7.2230 C   0  0  0  0  0  0  0  0  0  0  0  0
   -1.2690    9.6370   -6.7520 C   0  0  0  0  0  0  0  0  0  0  0  0
   -2.1150    8.2100   -7.6010 Br  0  0  0  0  0  0  0  0  0  0  0  0
  1  2  1  0
  1  3  1  0
  3  4  1  0
  4  5  2  0
  4  6  1  0
  6  7  1  0
  7  8  2  0
  7  9  1  0
  8 10  1  0
  9 11  2  0
 11 12  1  0
 10 13  2  0
 11 13  1  0
 12 14  1  0
 14 15  1  0
 15 16  1  0
 16 17  2  3
 17 18  1  0
 17 19  1  0
 18 20  1  0
 20 21  1  0
 20 22  1  0
 22 23  2  0
 21 24  2  0
 22 25  1  0
 24 26  1  0
 25 26  2  0
 26 27  1  0
M  END
>  <comRMSD>  (33) 
0.219496

>  <∆∆G>  (33) 
-9.672416

>  <N_constrained_atoms>  (33) 
25.0

>  <LE>  (33) 
-0.358238

>  <ref_pdb>  (33) 
x0104_0

>  <ref_mols>  (33) 
x0290_0_A_α,x0864_0_A_α

>  <%Rank>  (33) 
0.549073

>  <generation_date>  (33) 
nan

>  <method>  (33) 
nan

>  <submitter_email>  (33) 
nan

>  <original SMILES>  (33) 
CNCC(=O)Nc1cc(CCCN=C(O)Cn2ccc(Br)cc2=O)ccn1

>  <ref_url>  (33) 
nan

>  <submitter_name>  (33) 
nan

>  <submitter_institution>  (33) 
nan

$$$$
x0676_0_B_α-x0465_0_A_α
     RDKit          3D

 28 30  0  0  0  0  0  0  0  0999 V2000
    5.7920    6.6460   -9.2050 C   0  0  0  0  0  0  0  0  0  0  0  0
    4.7320    7.1820  -10.1010 C   0  0  0  0  0  0  0  0  0  0  0  0
    4.9630    7.7140  -11.2630 N   0  0  0  0  0  0  0  0  0  0  0  0
    3.2810    7.1550   -9.7220 C   0  0  0  0  0  0  0  0  0  0  0  0
    2.7230    8.0600  -10.7920 C   0  0  0  0  0  0  0  0  0  0  0  0
    3.7200    8.1270  -11.7580 N   0  0  0  0  0  0  0  0  0  0  0  0
    1.5540    8.5500  -10.6220 N   0  0  0  0  0  0  0  0  0  0  0  0
    3.8130    9.1710  -12.7240 C   0  0  0  0  0  0  0  0  0  0  0  0
    0.8110    8.2300   -9.4090 C   0  0  0  0  0  0  0  0  0  0  0  0
    2.9010   10.2450  -12.7690 C   0  0  0  0  0  0  0  0  0  0  0  0
    4.8410    9.1530  -13.6740 C   0  0  0  0  0  0  0  0  0  0  0  0
    0.5900    9.5200   -8.6110 C   0  0  0  0  0  0  0  0  0  0  0  0
    3.0190   11.2600  -13.7250 C   0  0  0  0  0  0  0  0  0  0  0  0
    4.9600   10.1650  -14.6340 C   0  0  0  0  0  0  0  0  0  0  0  0
    0.4690    9.2490   -7.2170 O   0  0  0  0  0  0  0  0  0  0  0  0
    4.0500   11.2180  -14.6600 C   0  0  0  0  0  0  0  0  0  0  0  0
   -0.6520    9.6430   -6.5510 C   0  0  0  0  0  0  0  0  0  0  0  0
   -0.5250   10.7640   -5.7080 C   0  0  0  0  0  0  0  0  0  0  0  0
   -1.8900    9.0070   -6.6570 C   0  0  0  0  0  0  0  0  0  0  0  0
    0.6580   11.4510   -5.5400 O   0  0  0  0  0  0  0  0  0  0  0  0
   -2.9910    9.4750   -5.9400 C   0  0  0  0  0  0  0  0  0  0  0  0
   -1.6320   11.2290   -4.9890 C   0  0  0  0  0  0  0  0  0  0  0  0
    0.6990   12.5670   -4.6410 C   0  0  2  0  0  0  0  0  0  0  0  0
   -2.8650   10.5830   -5.1060 C   0  0  0  0  0  0  0  0  0  0  0  0
    2.0320   13.2580   -4.9000 C   0  0  0  0  0  0  0  0  0  0  0  0
    0.6930   12.1370   -3.1750 C   0  0  0  0  0  0  0  0  0  0  0  0
    1.0590   12.7790   -2.2030 O   0  0  0  0  0  0  0  0  0  0  0  0
    0.2200   10.8820   -3.0020 O   0  0  0  0  0  0  0  0  0  0  0  0
  1  2  1  0
  2  3  2  0
  2  4  1  0
  4  5  1  0
  3  6  1  0
  5  6  1  0
  5  7  2  3
  6  8  1  0
  7  9  1  0
  8 10  2  0
  8 11  1  0
  9 12  1  0
 10 13  1  0
 11 14  2  0
 12 15  1  0
 13 16  2  0
 14 16  1  0
 15 17  1  0
 17 18  2  0
 17 19  1  0
 18 20  1  0
 19 21  2  0
 18 22  1  0
 20 23  1  0
 21 24  1  0
 22 24  2  0
 23 25  1  6
 23 26  1  0
 26 27  2  0
 26 28  1  0
M  END
>  <comRMSD>  (34) 
0.191186

>  <∆∆G>  (34) 
-7.025681

>  <N_constrained_atoms>  (34) 
26.0

>  <LE>  (34) 
-0.250917

>  <ref_pdb>  (34) 
x0104_0

>  <ref_mols>  (34) 
x0676_0_B_α,x0465_0_A_α

>  <%Rank>  (34) 
0.566232

>  <generation_date>  (34) 
nan

>  <method>  (34) 
nan

>  <submitter_email>  (34) 
nan

>  <original SMILES>  (34) 
CC1=NN(c2ccccc2)C(=NCCOc2ccccc2O[C@H](C)C(=O)O)C1

>  <ref_url>  (34) 
nan

>  <submitter_name>  (34) 
nan

>  <submitter_institution>  (34) 
nan

$$$$
x0967_0_A_α-x1015_0_A_α
     RDKit          3D

 27 30  0  0  0  0  0  0  0  0999 V2000
   -1.1710   14.4650   -4.3920 C   0  0  0  0  0  0  0  0  0  0  0  0
   -2.4090   14.2280   -3.5160 C   0  0  0  0  0  0  0  0  0  0  0  0
   -2.9100   15.5150   -2.8480 C   0  0  0  0  0  0  0  0  0  0  0  0
    0.0720   13.6560   -3.9860 C   0  0  2  0  0  0  0  0  0  0  0  0
   -0.0960   12.2090   -3.9290 N   0  0  0  0  0  0  0  0  0  0  0  0
    0.4570   13.9380   -2.5390 C   0  0  0  0  0  0  0  0  0  0  0  0
    0.5520   15.0380   -2.0110 O   0  0  0  0  0  0  0  0  0  0  0  0
   -3.6910   15.3200   -1.5720 C   0  0  0  0  0  0  0  0  0  0  0  0
    0.2920   11.7070   -2.6780 C   0  0  0  0  0  0  0  0  0  0  0  0
    0.6930   12.7630   -1.9130 N   0  0  0  0  0  0  0  0  0  0  0  0
   -0.4890   11.4250   -5.0410 C   0  0  0  0  0  0  0  0  0  0  0  0
    0.3020   10.5430   -2.2720 O   0  0  0  0  0  0  0  0  0  0  0  0
   -5.0130   15.0600   -1.6770 N   0  0  0  0  0  0  0  0  0  0  0  0
   -3.0410   15.4120   -0.3500 C   0  0  0  0  0  0  0  0  0  0  0  0
    0.0700   11.6240   -6.3120 C   0  0  0  0  0  0  0  0  0  0  0  0
   -1.4540   10.4190   -4.8990 C   0  0  0  0  0  0  0  0  0  0  0  0
   -5.7450   14.8830   -0.5780 C   0  0  0  0  0  0  0  0  0  0  0  0
   -3.7870   15.2300    0.8040 C   0  0  0  0  0  0  0  0  0  0  0  0
   -0.3230   10.8420   -7.4030 C   0  0  0  0  0  0  0  0  0  0  0  0
   -1.8500    9.6340   -5.9860 C   0  0  0  0  0  0  0  0  0  0  0  0
   -7.0500   14.6310   -0.7170 N   0  0  0  0  0  0  0  0  0  0  0  0
   -5.1550   14.9630    0.6920 C   0  0  0  0  0  0  0  0  0  0  0  0
   -1.2820    9.8490   -7.2350 C   0  0  0  0  0  0  0  0  0  0  0  0
   -1.7720    8.8830   -8.5700 Cl  0  0  0  0  0  0  0  0  0  0  0  0
   -5.9600   14.7730    1.8210 C   0  0  0  0  0  0  0  0  0  0  0  0
   -7.8080   14.4510    0.3870 C   0  0  0  0  0  0  0  0  0  0  0  0
   -7.3110   14.5110    1.6690 C   0  0  0  0  0  0  0  0  0  0  0  0
  1  2  1  0
  2  3  1  0
  4  1  1  1
  4  5  1  0
  4  6  1  0
  6  7  2  0
  3  8  1  0
  5  9  1  0
  6 10  1  0
  9 10  1  0
  5 11  1  0
  9 12  2  0
  8 13  2  0
  8 14  1  0
 11 15  2  0
 11 16  1  0
 13 17  1  0
 14 18  2  0
 15 19  1  0
 16 20  2  0
 17 21  2  0
 17 22  1  0
 18 22  1  0
 19 23  2  0
 20 23  1  0
 23 24  1  0
 22 25  2  0
 21 26  1  0
 25 27  1  0
 26 27  2  0
M  END
>  <comRMSD>  (35) 
0.19447

>  <∆∆G>  (35) 
-8.064294

>  <N_constrained_atoms>  (35) 
25.0

>  <LE>  (35) 
-0.298678

>  <ref_pdb>  (35) 
x0104_0

>  <ref_mols>  (35) 
x0967_0_A_α,x1015_0_A_α

>  <%Rank>  (35) 
0.583391

>  <generation_date>  (35) 
nan

>  <method>  (35) 
nan

>  <submitter_email>  (35) 
nan

>  <original SMILES>  (35) 
O=C1NC(=O)N(c2ccc(Cl)cc2)C1CCCc1ccc2cccnc2n1

>  <ref_url>  (35) 
nan

>  <submitter_name>  (35) 
nan

>  <submitter_institution>  (35) 
nan

$$$$
5CB5_0_B_γ-1vhu_0_A_α
     RDKit          3D

 21 22  0  0  0  0  0  0  0  0999 V2000
   -0.6240   12.4060   -3.9970 O   0  0  0  0  0  0  0  0  0  0  0  0
   -0.9640   13.7840   -4.0340 C   0  0  1  0  0  0  0  0  0  0  0  0
   -0.5490   14.5690   -2.7880 C   0  0  0  0  0  0  0  0  0  0  0  0
   -0.1670   14.4730   -5.1180 C   0  0  2  0  0  0  0  0  0  0  0  0
    1.1770   13.9970   -5.1020 O   0  0  0  0  0  0  0  0  0  0  0  0
   -0.0180   15.8260   -3.2390 O   0  0  0  0  0  0  0  0  0  0  0  0
   -0.3660   15.9030   -4.6230 C   0  0  1  0  0  0  0  0  0  0  0  0
    0.2460   17.0810   -5.3740 C   0  0  0  0  0  0  0  0  0  0  0  0
   -0.7680   17.9530   -6.1210 C   0  0  0  0  0  0  0  0  0  0  0  0
   -0.2780   19.3190   -6.2530 N   0  0  0  0  0  0  0  0  0  0  0  0
    0.0740   19.9030   -7.7920 S   0  0  2  0  0  0  0  0  0  0  0  0
    0.2460   18.7590   -8.6770 O   0  0  0  0  0  0  0  0  0  0  0  0
    1.1520   20.8780   -7.6100 O   0  0  0  0  0  0  0  0  0  0  0  0
   -1.4790   20.6620   -8.2650 C   0  0  0  0  0  0  0  0  0  0  0  0
   -1.8230   21.9840   -7.6160 C   0  0  0  0  0  0  0  0  0  0  0  0
   -3.2470   22.3850   -7.7240 N   0  0  0  0  0  0  0  0  0  0  0  0
   -3.6660   22.7900   -9.0700 C   0  0  0  0  0  0  0  0  0  0  0  0
   -3.6660   23.3660   -6.7100 C   0  0  0  0  0  0  0  0  0  0  0  0
   -5.1340   23.1900   -9.1760 C   0  0  0  0  0  0  0  0  0  0  0  0
   -5.1320   23.7680   -6.8770 C   0  0  0  0  0  0  0  0  0  0  0  0
   -5.4700   24.1730   -8.2040 O   0  0  0  0  0  0  0  0  0  0  0  0
  2  1  1  1
  2  3  1  0
  2  4  1  0
  4  5  1  1
  3  6  1  0
  4  7  1  0
  6  7  1  0
  7  8  1  6
  8  9  1  0
  9 10  1  0
 10 11  2  0
 11 12  2  0
 11 13  1  1
 11 14  1  0
 14 15  1  0
 15 16  1  0
 16 17  1  0
 16 18  1  0
 17 19  1  0
 18 20  1  0
 19 21  1  0
 20 21  1  0
M  CHG  1  13  -1
M  END
>  <comRMSD>  (36) 
0.402096

>  <∆∆G>  (36) 
-15.239015

>  <N_constrained_atoms>  (36) 
20.0

>  <LE>  (36) 
-0.725667

>  <ref_pdb>  (36) 
x0104_0

>  <ref_mols>  (36) 


>  <%Rank>  (36) 
0.600549

>  <generation_date>  (36) 
nan

>  <method>  (36) 
nan

>  <submitter_email>  (36) 
nan

>  <original SMILES>  (36) 
O=S([O-])(CCN1CCOCC1)=NCCC1OCC(O)C1O

>  <ref_url>  (36) 
nan

>  <submitter_name>  (36) 
nan

>  <submitter_institution>  (36) 
nan

$$$$
x0628_0_A_α-x0724_0_A_α
     RDKit          3D

 28 30  0  0  0  0  0  0  0  0999 V2000
   -0.8730    9.0580   -7.2900 C   0  0  0  0  0  0  0  0  0  0  0  0
   -0.8890   10.2620   -6.4350 C   0  0  0  0  0  0  0  0  0  0  0  0
   -1.9050   10.5400   -5.5600 N   0  0  0  0  0  0  0  0  0  0  0  0
    0.0920   11.1660   -6.4530 N   0  0  0  0  0  0  0  0  0  0  0  0
   -0.3300   12.0570   -5.5350 N   0  0  0  0  0  0  0  0  0  0  0  0
   -1.5400   11.6780   -4.9950 C   0  0  0  0  0  0  0  0  0  0  0  0
   -2.2940   12.4400   -3.9440 C   0  0  0  0  0  0  0  0  0  0  0  0
    0.4930   13.2190   -5.2550 C   0  0  0  0  0  0  0  0  0  0  0  0
    1.6340   12.9130   -4.2950 C   0  0  0  0  0  0  0  0  0  0  0  0
   -2.4390   13.9500   -4.1970 C   0  0  0  0  0  0  0  0  0  0  0  0
    1.1240   12.2540   -3.0450 C   0  0  0  0  0  0  0  0  0  0  0  0
   -3.6980   14.6160   -3.6000 C   0  0  0  0  0  0  0  0  0  0  0  0
    0.6680   11.1290   -2.9250 O   0  0  0  0  0  0  0  0  0  0  0  0
    1.2200   13.0680   -1.9810 O   0  0  0  0  0  0  0  0  0  0  0  0
   -3.7450   14.6660   -2.0860 C   0  0  0  0  0  0  0  0  0  0  0  0
   -2.5570   14.7250   -1.3510 C   0  0  0  0  0  0  0  0  0  0  0  0
   -4.9720   14.6570   -1.3980 C   0  0  0  0  0  0  0  0  0  0  0  0
   -2.5800   14.7760    0.0450 C   0  0  0  0  0  0  0  0  0  0  0  0
   -4.9990   14.7080    0.0070 C   0  0  0  0  0  0  0  0  0  0  0  0
   -6.2270   14.7080    0.7270 N   0  0  0  0  0  0  0  0  0  0  0  0
   -3.7960   14.7680    0.7230 C   0  0  0  0  0  0  0  0  0  0  0  0
   -7.4230   14.5640    0.0980 N   0  0  0  0  0  0  0  0  0  0  0  0
   -6.4010   14.8540    2.0870 C   0  0  0  0  0  0  0  0  0  0  0  0
   -7.7580   14.8210    2.3480 C   0  0  0  0  0  0  0  0  0  0  0  0
   -8.3310   14.6330    1.0720 C   0  0  0  0  0  0  0  0  0  0  0  0
   -8.4560   14.9590    3.6510 C   0  0  0  0  0  0  0  0  0  0  0  0
   -8.2510   13.7430    4.4240 N   0  0  0  0  0  0  0  0  0  0  0  0
   -8.7130   13.9230    5.7920 C   0  0  0  0  0  0  0  0  0  0  0  0
  1  2  1  0
  2  3  1  0
  2  4  2  0
  4  5  1  0
  3  6  2  0
  5  6  1  0
  6  7  1  0
  5  8  1  0
  8  9  1  0
  7 10  1  0
  9 11  1  0
 10 12  1  0
 11 13  2  0
 11 14  1  0
 12 15  1  0
 15 16  2  0
 15 17  1  0
 16 18  1  0
 17 19  2  0
 19 20  1  0
 18 21  2  0
 19 21  1  0
 20 22  1  0
 20 23  1  0
 23 24  2  0
 22 25  2  0
 24 25  1  0
 24 26  1  0
 26 27  1  0
 27 28  1  0
M  END
>  <comRMSD>  (37) 
0.160286

>  <∆∆G>  (37) 
-5.042032

>  <N_constrained_atoms>  (37) 
26.0

>  <LE>  (37) 
-0.180073

>  <ref_pdb>  (37) 
x0104_0

>  <ref_mols>  (37) 
x0628_0_A_α,x0724_0_A_α

>  <%Rank>  (37) 
0.617708

>  <generation_date>  (37) 
nan

>  <method>  (37) 
nan

>  <submitter_email>  (37) 
nan

>  <original SMILES>  (37) 
CNCc1cnn(-c2cccc(CCCc3nc(C)nn3CCC(=O)O)c2)c1

>  <ref_url>  (37) 
nan

>  <submitter_name>  (37) 
nan

>  <submitter_institution>  (37) 
nan

$$$$
x0805_0_A_α-x1012_0_A_α
     RDKit          3D

 19 20  0  0  0  0  0  0  0  0999 V2000
   -3.1070   15.3390   -0.1210 O   0  0  0  0  0  0  0  0  0  0  0  0
   -4.3790   15.6460    0.4290 C   0  0  0  0  0  0  0  0  0  0  0  0
   -3.1120   14.9400   -1.4980 C   0  0  2  0  0  0  0  0  0  0  0  0
   -4.0940   13.7670   -1.6430 C   0  0  0  0  0  0  0  0  0  0  0  0
   -1.6940   14.5060   -1.8980 C   0  0  0  0  0  0  0  0  0  0  0  0
   -1.5600   13.9310   -3.3350 C   0  0  1  0  0  0  0  0  0  0  0  0
   -3.7200   12.7570   -2.6960 C   0  0  0  0  0  0  0  0  0  0  0  0
   -2.6060   12.8190   -3.4450 C   0  0  0  0  0  0  0  0  0  0  0  0
   -1.8740   15.0240   -4.3970 C   0  0  0  0  0  0  0  0  0  0  0  0
   -0.1320   13.3580   -3.5630 C   0  0  2  0  0  0  0  0  0  0  0  0
    0.2900   12.4160   -2.4420 C   0  0  0  0  0  0  0  0  0  0  0  0
    0.9250   14.4700   -3.7030 C   0  0  0  0  0  0  0  0  0  0  0  0
   -0.8050   15.9740   -4.7390 N   0  0  0  0  0  0  0  0  0  0  0  0
   -1.2000   17.2890   -4.7960 C   0  0  0  0  0  0  0  0  0  0  0  0
    0.3770   11.1380   -2.8600 O   0  0  0  0  0  0  0  0  0  0  0  0
    0.5340   12.6880   -1.2820 O   0  0  0  0  0  0  0  0  0  0  0  0
    0.5900   15.5340   -4.7450 C   0  0  0  0  0  0  0  0  0  0  0  0
   -0.2340   18.2270   -4.7570 N   0  0  0  0  0  0  0  0  0  0  0  0
   -2.3630   17.6670   -4.8630 O   0  0  0  0  0  0  0  0  0  0  0  0
  1  2  1  0
  3  1  1  1
  3  4  1  0
  3  5  1  0
  6  5  1  1
  4  7  1  0
  6  8  1  0
  7  8  2  0
  6  9  1  0
  6 10  1  0
 10 11  1  1
 10 12  1  0
  9 13  1  0
 13 14  1  0
 11 15  1  0
 11 16  2  0
 12 17  1  0
 13 17  1  0
 14 18  1  0
 14 19  2  0
M  END
>  <comRMSD>  (38) 
0.336018

>  <∆∆G>  (38) 
-7.229526

>  <N_constrained_atoms>  (38) 
19.0

>  <LE>  (38) 
-0.380501

>  <ref_pdb>  (38) 
x0104_0

>  <ref_mols>  (38) 
x0805_0_A_α,x1012_0_A_α

>  <%Rank>  (38) 
0.634866

>  <generation_date>  (38) 
nan

>  <method>  (38) 
nan

>  <submitter_email>  (38) 
nan

>  <original SMILES>  (38) 
COC1CC=CC2(C1)CN(C(N)=O)CCC2C(=O)O

>  <ref_url>  (38) 
nan

>  <submitter_name>  (38) 
nan

>  <submitter_institution>  (38) 
nan

$$$$
x0104_0_A_α-x0421_0_A_α
     RDKit          3D

 19 21  0  0  0  0  0  0  0  0999 V2000
   -7.9350   15.1860    3.4520 C   0  0  0  0  0  0  0  0  0  0  0  0
   -8.2510   15.5460    4.7270 N   0  0  0  0  0  0  0  0  0  0  0  0
   -9.3620   15.3120    5.4540 C   0  0  0  0  0  0  0  0  0  0  0  0
   -8.6240   15.1650    2.3530 N   0  0  0  0  0  0  0  0  0  0  0  0
   -7.7340   14.6940    1.2750 C   0  0  1  0  0  0  0  0  0  0  0  0
   -9.4880   15.2180    6.8200 C   0  0  0  0  0  0  0  0  0  0  0  0
  -10.8770   15.0910    4.6710 S   0  0  0  0  0  0  0  0  0  0  0  0
   -6.3160   14.4690    1.7360 C   0  0  1  0  0  0  0  0  0  0  0  0
   -7.1980   13.2980    1.4070 C   0  0  0  0  0  0  0  0  0  0  0  0
  -10.8280   14.9660    7.2350 C   0  0  0  0  0  0  0  0  0  0  0  0
  -11.6890   14.8740    6.1620 C   0  0  0  0  0  0  0  0  0  0  0  0
   -5.0130   14.6780    0.9300 C   0  0  0  0  0  0  0  0  0  0  0  0
   -3.8290   14.8990    1.5680 N   0  0  0  0  0  0  0  0  0  0  0  0
   -4.8820   14.6640   -0.3770 N   0  0  0  0  0  0  0  0  0  0  0  0
   -3.5220   14.8840   -0.5840 C   0  0  0  0  0  0  0  0  0  0  0  0
   -2.8650   15.0330    0.6250 C   0  0  0  0  0  0  0  0  0  0  0  0
   -2.9050   14.9410   -1.9020 C   0  0  0  0  0  0  0  0  0  0  0  0
   -3.7820   15.1590   -2.9200 N   0  0  0  0  0  0  0  0  0  0  0  0
   -1.7010   14.8000   -2.1040 O   0  0  0  0  0  0  0  0  0  0  0  0
  1  2  1  0
  2  3  1  0
  1  4  2  3
  5  4  1  1
  3  6  2  0
  3  7  1  0
  5  8  1  0
  5  9  1  0
  8  9  1  0
  6 10  1  0
  7 11  1  0
 10 11  2  0
  8 12  1  6
 12 13  1  0
 12 14  2  0
 14 15  1  0
 13 16  1  0
 15 16  2  0
 15 17  1  0
 17 18  1  0
 17 19  2  0
M  END
>  <comRMSD>  (39) 
0.263265

>  <∆∆G>  (39) 
-4.446971

>  <N_constrained_atoms>  (39) 
19.0

>  <LE>  (39) 
-0.234051

>  <ref_pdb>  (39) 
x0104_0

>  <ref_mols>  (39) 
x0104_0_A_α,x0421_0_A_α

>  <%Rank>  (39) 
0.652025

>  <generation_date>  (39) 
nan

>  <method>  (39) 
nan

>  <submitter_email>  (39) 
nan

>  <original SMILES>  (39) 
NC(=O)c1c[nH]c(C2CC2N=CNc2cccs2)n1

>  <ref_url>  (39) 
nan

>  <submitter_name>  (39) 
nan

>  <submitter_institution>  (39) 
nan

$$$$
x0228_0_B_β-x0417_0_B_α
     RDKit          3D

 25 27  0  0  0  0  0  0  0  0999 V2000
   -6.4660   25.6810  -13.5880 N   0  0  0  0  0  0  0  0  0  0  0  0
   -5.2870   25.3610  -12.8930 C   0  0  0  0  0  0  0  0  0  0  0  0
   -4.0540   25.8530  -13.3380 C   0  0  0  0  0  0  0  0  0  0  0  0
   -5.3450   24.5520  -11.7610 C   0  0  0  0  0  0  0  0  0  0  0  0
   -4.1410   26.6280  -14.4570 O   0  0  0  0  0  0  0  0  0  0  0  0
   -4.1870   24.2210  -11.0630 C   0  0  0  0  0  0  0  0  0  0  0  0
   -2.8910   25.5320  -12.6460 C   0  0  0  0  0  0  0  0  0  0  0  0
   -2.9760   27.2660  -14.9550 C   0  0  0  0  0  0  0  0  0  0  0  0
   -4.2850   23.3510   -9.8470 C   0  0  0  0  0  0  0  0  0  0  0  0
   -2.9610   24.7190  -11.5220 C   0  0  0  0  0  0  0  0  0  0  0  0
   -2.8610   28.7490  -14.5230 C   0  0  1  0  0  0  0  0  0  0  0  0
   -2.0780   29.4160  -15.6680 C   0  0  0  0  0  0  0  0  0  0  0  0
   -4.0790   29.5800  -14.3870 N   0  0  0  0  0  0  0  0  0  0  0  0
   -2.5510   30.8500  -15.7200 C   0  0  2  0  0  0  0  0  0  0  0  0
   -3.9370   30.7800  -15.1040 C   0  0  0  0  0  0  0  0  0  0  0  0
   -5.2320   29.3890  -13.5380 C   0  0  0  0  0  0  0  0  0  0  0  0
   -2.6620   31.3720  -17.0920 N   0  0  0  0  0  0  0  0  0  0  0  0
   -4.7590   31.6610  -15.2520 O   0  0  0  0  0  0  0  0  0  0  0  0
   -6.5100   29.3240  -14.1070 C   0  0  0  0  0  0  0  0  0  0  0  0
   -5.1850   29.2700  -12.1370 C   0  0  0  0  0  0  0  0  0  0  0  0
   -1.3820   31.8010  -17.6250 C   0  0  0  0  0  0  0  0  0  0  0  0
   -4.0450   29.3210  -11.4910 F   0  0  0  0  0  0  0  0  0  0  0  0
   -7.6630   29.1510  -13.3230 C   0  0  0  0  0  0  0  0  0  0  0  0
   -6.3200   29.1000  -11.3490 C   0  0  0  0  0  0  0  0  0  0  0  0
   -7.5640   29.0400  -11.9400 C   0  0  0  0  0  0  0  0  0  0  0  0
  1  2  1  0
  2  3  2  0
  2  4  1  0
  3  5  1  0
  4  6  2  0
  3  7  1  0
  5  8  1  0
  6  9  1  0
  6 10  1  0
  7 10  2  0
 11  8  1  6
 11 12  1  0
 11 13  1  0
 12 14  1  0
 13 15  1  0
 14 15  1  0
 13 16  1  0
 14 17  1  6
 15 18  2  0
 16 19  2  0
 16 20  1  0
 17 21  1  0
 20 22  1  0
 19 23  1  0
 20 24  2  0
 23 25  2  0
 24 25  1  0
M  END
>  <comRMSD>  (40) 
0.359924

>  <∆∆G>  (40) 
-5.50819

>  <N_constrained_atoms>  (40) 
25.0

>  <LE>  (40) 
-0.220328

>  <ref_pdb>  (40) 
x0104_0

>  <ref_mols>  (40) 
x0228_0_B_β,x0417_0_B_α

>  <%Rank>  (40) 
0.669183

>  <generation_date>  (40) 
nan

>  <method>  (40) 
nan

>  <submitter_email>  (40) 
nan

>  <original SMILES>  (40) 
CNC1CC(COc2ccc(C)cc2N)N(c2ccccc2F)C1=O

>  <ref_url>  (40) 
nan

>  <submitter_name>  (40) 
nan

>  <submitter_institution>  (40) 
nan

$$$$
x0864_0_A_α-x0290_0_A_α
     RDKit          3D

 27 28  0  0  0  0  0  0  0  0999 V2000
    1.5390   11.8220   -6.9150 O   0  0  0  0  0  0  0  0  0  0  0  0
    0.5080   11.3150   -6.4980 C   0  0  0  0  0  0  0  0  0  0  0  0
   -0.1130   11.7450   -5.3410 N   0  0  0  0  0  0  0  0  0  0  0  0
   -0.1180   10.1820   -7.2150 C   0  0  0  0  0  0  0  0  0  0  0  0
    0.6700   12.6420   -4.4940 C   0  0  0  0  0  0  0  0  0  0  0  0
   -1.3000   11.1990   -4.8950 C   0  0  0  0  0  0  0  0  0  0  0  0
   -1.2540    9.6530   -6.7490 C   0  0  0  0  0  0  0  0  0  0  0  0
    0.7410   12.1400   -3.0600 C   0  0  0  0  0  0  0  0  0  0  0  0
   -2.0860    8.2170   -7.6020 Br  0  0  0  0  0  0  0  0  0  0  0  0
   -1.8780   10.1830   -5.5550 C   0  0  0  0  0  0  0  0  0  0  0  0
    0.3320   10.8680   -2.8430 O   0  0  0  0  0  0  0  0  0  0  0  0
    1.1640   12.8960   -2.1160 N   0  0  0  0  0  0  0  0  0  0  0  0
    1.6080   14.2530   -2.4480 C   0  0  0  0  0  0  0  0  0  0  0  0
    0.4100   15.1290   -2.8380 C   0  0  0  0  0  0  0  0  0  0  0  0
   -0.9600   14.5480   -2.4640 C   0  0  0  0  0  0  0  0  0  0  0  0
   -1.2480   14.5540   -0.9800 C   0  0  0  0  0  0  0  0  0  0  0  0
   -0.2180   14.4920   -0.0410 C   0  0  0  0  0  0  0  0  0  0  0  0
   -2.5670   14.6260   -0.5200 C   0  0  0  0  0  0  0  0  0  0  0  0
   -0.5570   14.5000    1.2970 C   0  0  0  0  0  0  0  0  0  0  0  0
   -2.8260   14.6310    0.8380 C   0  0  0  0  0  0  0  0  0  0  0  0
   -4.1030   14.6930    1.3810 N   0  0  0  0  0  0  0  0  0  0  0  0
   -1.8230   14.5680    1.7540 N   0  0  0  0  0  0  0  0  0  0  0  0
   -5.3320   14.4710    0.8420 C   0  0  0  0  0  0  0  0  0  0  0  0
   -5.4500   14.5250   -0.3880 O   0  0  0  0  0  0  0  0  0  0  0  0
   -6.5560   14.1440    1.7020 C   0  0  0  0  0  0  0  0  0  0  0  0
   -7.7170   13.8410    0.8470 N   0  0  0  0  0  0  0  0  0  0  0  0
   -8.6350   14.9680    0.7590 C   0  0  0  0  0  0  0  0  0  0  0  0
  1  2  2  0
  2  3  1  0
  2  4  1  0
  3  5  1  0
  3  6  1  0
  4  7  2  0
  5  8  1  0
  7  9  1  0
  6 10  2  0
  7 10  1  0
  8 11  1  0
  8 12  2  3
 12 13  1  0
 13 14  1  0
 14 15  1  0
 15 16  1  0
 16 17  2  0
 16 18  1  0
 17 19  1  0
 18 20  2  0
 20 21  1  0
 19 22  2  0
 20 22  1  0
 21 23  1  0
 23 24  2  0
 23 25  1  0
 25 26  1  0
 26 27  1  0
M  END
>  <comRMSD>  (41) 
0.215257

>  <∆∆G>  (41) 
-8.891666

>  <N_constrained_atoms>  (41) 
25.0

>  <LE>  (41) 
-0.329321

>  <ref_pdb>  (41) 
x0104_0

>  <ref_mols>  (41) 
x0864_0_A_α,x0290_0_A_α

>  <%Rank>  (41) 
0.686342

>  <generation_date>  (41) 
nan

>  <method>  (41) 
nan

>  <submitter_email>  (41) 
nan

>  <original SMILES>  (41) 
CNCC(=O)Nc1cc(CCCN=C(O)Cn2ccc(Br)cc2=O)ccn1

>  <ref_url>  (41) 
nan

>  <submitter_name>  (41) 
nan

>  <submitter_institution>  (41) 
nan

$$$$
x0371_0_A_β-x1015_0_A_α
     RDKit          3D

 27 30  0  0  0  0  0  0  0  0999 V2000
   -8.3300   14.2640    1.6120 C   0  0  0  0  0  0  0  0  0  0  0  0
   -7.0880   14.5660    0.8650 C   0  0  0  0  0  0  0  0  0  0  0  0
   -5.8700   14.6850    1.4860 N   0  0  0  0  0  0  0  0  0  0  0  0
   -6.9720   14.7560   -0.4350 N   0  0  0  0  0  0  0  0  0  0  0  0
   -4.9290   14.9680    0.5410 C   0  0  0  0  0  0  0  0  0  0  0  0
   -5.6390   15.0020   -0.6510 C   0  0  0  0  0  0  0  0  0  0  0  0
   -3.5590   15.1870    0.6310 C   0  0  0  0  0  0  0  0  0  0  0  0
   -4.9520   15.2610   -1.8410 C   0  0  0  0  0  0  0  0  0  0  0  0
   -2.8880   15.4430   -0.5660 C   0  0  0  0  0  0  0  0  0  0  0  0
   -3.5610   15.4770   -1.8000 C   0  0  0  0  0  0  0  0  0  0  0  0
   -2.7880   15.7330   -3.0670 C   0  0  0  0  0  0  0  0  0  0  0  0
   -2.3080   14.4420   -3.7420 C   0  0  0  0  0  0  0  0  0  0  0  0
   -0.9990   14.5290   -4.5320 C   0  0  0  0  0  0  0  0  0  0  0  0
    0.1780   13.6610   -4.0320 C   0  0  2  0  0  0  0  0  0  0  0  0
   -0.1440   12.2350   -3.9150 N   0  0  0  0  0  0  0  0  0  0  0  0
    0.4470   13.9640   -2.5590 C   0  0  0  0  0  0  0  0  0  0  0  0
    0.4990   15.0660   -2.0320 O   0  0  0  0  0  0  0  0  0  0  0  0
    0.2600   11.7360   -2.6690 C   0  0  0  0  0  0  0  0  0  0  0  0
    0.6380   12.7950   -1.9000 N   0  0  0  0  0  0  0  0  0  0  0  0
   -0.5240   11.4390   -5.0260 C   0  0  0  0  0  0  0  0  0  0  0  0
    0.2940   10.5680   -2.2700 O   0  0  0  0  0  0  0  0  0  0  0  0
    0.0510   11.6430   -6.2900 C   0  0  0  0  0  0  0  0  0  0  0  0
   -1.4810   10.4260   -4.8950 C   0  0  0  0  0  0  0  0  0  0  0  0
   -0.3220   10.8560   -7.3890 C   0  0  0  0  0  0  0  0  0  0  0  0
   -1.8570    9.6370   -5.9890 C   0  0  0  0  0  0  0  0  0  0  0  0
   -1.2750    9.8580   -7.2290 C   0  0  0  0  0  0  0  0  0  0  0  0
   -1.7430    8.8870   -8.5710 Cl  0  0  0  0  0  0  0  0  0  0  0  0
  1  2  1  0
  2  3  1  0
  2  4  2  0
  3  5  1  0
  4  6  1  0
  5  6  2  0
  5  7  1  0
  6  8  1  0
  7  9  2  0
  8 10  2  0
  9 10  1  0
 10 11  1  0
 11 12  1  0
 12 13  1  0
 14 13  1  1
 14 15  1  0
 14 16  1  0
 16 17  2  0
 15 18  1  0
 16 19  1  0
 18 19  1  0
 15 20  1  0
 18 21  2  0
 20 22  2  0
 20 23  1  0
 22 24  1  0
 23 25  2  0
 24 26  2  0
 25 26  1  0
 26 27  1  0
M  END
>  <comRMSD>  (42) 
0.181643

>  <∆∆G>  (42) 
-7.022271

>  <N_constrained_atoms>  (42) 
25.0

>  <LE>  (42) 
-0.260084

>  <ref_pdb>  (42) 
x0104_0

>  <ref_mols>  (42) 
x0371_0_A_β,x1015_0_A_α

>  <%Rank>  (42) 
0.7035

>  <generation_date>  (42) 
nan

>  <method>  (42) 
nan

>  <submitter_email>  (42) 
nan

>  <original SMILES>  (42) 
Cc1nc2cc(CCCC3C(=O)NC(=O)N3c3ccc(Cl)cc3)ccc2[nH]1

>  <ref_url>  (42) 
nan

>  <submitter_name>  (42) 
nan

>  <submitter_institution>  (42) 
nan

$$$$
x0290_0_A_α-x0628_0_A_α
     RDKit          3D

 26 27  0  0  0  0  0  0  0  0999 V2000
   -7.7570   13.8110    0.8800 N   0  0  0  0  0  0  0  0  0  0  0  0
   -8.5990   14.9850    0.7100 C   0  0  0  0  0  0  0  0  0  0  0  0
   -6.5040   14.0560    1.6140 C   0  0  0  0  0  0  0  0  0  0  0  0
   -5.3510   14.4770    0.6850 C   0  0  0  0  0  0  0  0  0  0  0  0
   -5.5240   14.5930   -0.5240 O   0  0  0  0  0  0  0  0  0  0  0  0
   -4.1590   14.6820    1.3440 N   0  0  0  0  0  0  0  0  0  0  0  0
   -2.8820   14.6130    0.7820 C   0  0  0  0  0  0  0  0  0  0  0  0
   -1.8690   14.5760    1.6860 N   0  0  0  0  0  0  0  0  0  0  0  0
   -2.6610   14.5790   -0.5970 C   0  0  0  0  0  0  0  0  0  0  0  0
   -0.6110   14.5110    1.1950 C   0  0  0  0  0  0  0  0  0  0  0  0
   -1.3460   14.5050   -1.0910 C   0  0  0  0  0  0  0  0  0  0  0  0
   -1.0380   14.4620   -2.5840 C   0  0  0  0  0  0  0  0  0  0  0  0
   -0.3050   14.4740   -0.1550 C   0  0  0  0  0  0  0  0  0  0  0  0
   -2.0850   13.8200   -3.5260 C   0  0  0  0  0  0  0  0  0  0  0  0
   -2.0720   12.2770   -3.5420 C   0  0  0  0  0  0  0  0  0  0  0  0
   -1.4290   11.6390   -4.7520 C   0  0  0  0  0  0  0  0  0  0  0  0
   -1.8370   10.5190   -5.3370 N   0  0  0  0  0  0  0  0  0  0  0  0
   -0.3240   12.0920   -5.4400 N   0  0  0  0  0  0  0  0  0  0  0  0
    0.4940   13.2660   -5.2110 C   0  0  0  0  0  0  0  0  0  0  0  0
   -0.9470   10.3330   -6.3650 C   0  0  0  0  0  0  0  0  0  0  0  0
   -0.0060   11.2770   -6.4640 N   0  0  0  0  0  0  0  0  0  0  0  0
   -1.0170    9.1810   -7.2870 C   0  0  0  0  0  0  0  0  0  0  0  0
    1.6780   12.9760   -4.3100 C   0  0  0  0  0  0  0  0  0  0  0  0
    1.2170   12.2260   -3.0990 C   0  0  0  0  0  0  0  0  0  0  0  0
    0.5320   11.2210   -3.0570 O   0  0  0  0  0  0  0  0  0  0  0  0
    1.6450   12.8060   -1.9690 O   0  0  0  0  0  0  0  0  0  0  0  0
  1  2  1  0
  1  3  1  0
  3  4  1  0
  4  5  2  0
  4  6  1  0
  6  7  1  0
  7  8  2  0
  7  9  1  0
  8 10  1  0
  9 11  2  0
 11 12  1  0
 10 13  2  0
 11 13  1  0
 12 14  1  0
 14 15  1  0
 15 16  1  0
 16 17  2  0
 16 18  1  0
 18 19  1  0
 17 20  1  0
 18 21  1  0
 20 21  2  0
 20 22  1  0
 19 23  1  0
 23 24  1  0
 24 25  2  0
 24 26  1  0
M  END
>  <comRMSD>  (43) 
0.277638

>  <∆∆G>  (43) 
-6.5171

>  <N_constrained_atoms>  (43) 
25.0

>  <LE>  (43) 
-0.250658

>  <ref_pdb>  (43) 
x0104_0

>  <ref_mols>  (43) 
x0290_0_A_α,x0628_0_A_α

>  <%Rank>  (43) 
0.720659

>  <generation_date>  (43) 
nan

>  <method>  (43) 
nan

>  <submitter_email>  (43) 
nan

>  <original SMILES>  (43) 
CNCC(=O)Nc1cc(CCCc2nc(C)nn2CCC(=O)O)ccn1

>  <ref_url>  (43) 
nan

>  <submitter_name>  (43) 
nan

>  <submitter_institution>  (43) 
nan

$$$$
x0104_0_A_β-x1015_0_A_α
     RDKit          3D

 25 27  0  0  0  0  0  0  0  0999 V2000
   -6.8460   14.6520    2.5430 N   0  0  0  0  0  0  0  0  0  0  0  0
   -6.2870   14.7530    1.2710 C   0  0  0  0  0  0  0  0  0  0  0  0
   -7.0770   14.6920    0.1260 C   0  0  0  0  0  0  0  0  0  0  0  0
   -4.9120   14.9270    1.0810 C   0  0  0  0  0  0  0  0  0  0  0  0
   -4.3040   15.0390   -0.1190 N   0  0  0  0  0  0  0  0  0  0  0  0
   -6.4820   14.8070   -1.1270 C   0  0  0  0  0  0  0  0  0  0  0  0
   -5.1070   14.9780   -1.1990 C   0  0  0  0  0  0  0  0  0  0  0  0
   -4.5650   15.0870   -2.4680 O   0  0  0  0  0  0  0  0  0  0  0  0
   -3.4580   14.2040   -2.6800 C   0  0  0  0  0  0  0  0  0  0  0  0
   -2.2700   15.0050   -3.2100 C   0  0  0  0  0  0  0  0  0  0  0  0
   -1.4800   14.3020   -4.3210 C   0  0  0  0  0  0  0  0  0  0  0  0
   -0.0900   13.6890   -3.9850 C   0  0  2  0  0  0  0  0  0  0  0  0
   -0.0740   12.2310   -3.9550 N   0  0  0  0  0  0  0  0  0  0  0  0
    0.2770   13.9750   -2.5240 C   0  0  0  0  0  0  0  0  0  0  0  0
    0.3510   15.0750   -2.0000 O   0  0  0  0  0  0  0  0  0  0  0  0
    0.2580   11.7370   -2.6820 C   0  0  0  0  0  0  0  0  0  0  0  0
    0.5340   12.8080   -1.8840 N   0  0  0  0  0  0  0  0  0  0  0  0
   -0.4780   11.4240   -5.0490 C   0  0  0  0  0  0  0  0  0  0  0  0
    0.3110   10.5680   -2.2870 O   0  0  0  0  0  0  0  0  0  0  0  0
    0.0790   11.6080   -6.3210 C   0  0  0  0  0  0  0  0  0  0  0  0
   -1.4450   10.4200   -4.8910 C   0  0  0  0  0  0  0  0  0  0  0  0
   -0.3150   10.8160   -7.4050 C   0  0  0  0  0  0  0  0  0  0  0  0
   -1.8410    9.6240   -5.9710 C   0  0  0  0  0  0  0  0  0  0  0  0
   -1.2750    9.8260   -7.2230 C   0  0  0  0  0  0  0  0  0  0  0  0
   -1.7640    8.8470   -8.5500 Cl  0  0  0  0  0  0  0  0  0  0  0  0
  1  2  1  0
  2  3  2  0
  2  4  1  0
  4  5  2  0
  3  6  1  0
  5  7  1  0
  6  7  2  0
  7  8  1  0
  8  9  1  0
  9 10  1  0
 10 11  1  0
 12 11  1  1
 12 13  1  0
 12 14  1  0
 14 15  2  0
 13 16  1  0
 14 17  1  0
 16 17  1  0
 13 18  1  0
 16 19  2  0
 18 20  2  0
 18 21  1  0
 20 22  1  0
 21 23  2  0
 22 24  2  0
 23 24  1  0
 24 25  1  0
M  END
>  <comRMSD>  (44) 
0.262203

>  <∆∆G>  (44) 
-6.452149

>  <N_constrained_atoms>  (44) 
24.0

>  <LE>  (44) 
-0.258086

>  <ref_pdb>  (44) 
x0104_0

>  <ref_mols>  (44) 
x0104_0_A_β,x1015_0_A_α

>  <%Rank>  (44) 
0.737817

>  <generation_date>  (44) 
nan

>  <method>  (44) 
nan

>  <submitter_email>  (44) 
nan

>  <original SMILES>  (44) 
Nc1ccc(OCCCC2C(=O)NC(=O)N2c2ccc(Cl)cc2)nc1

>  <ref_url>  (44) 
nan

>  <submitter_name>  (44) 
nan

>  <submitter_institution>  (44) 
nan

$$$$
6woj_A_0_A_γ-x0421_0_A_α
     RDKit          3D

 19 21  0  0  0  0  0  0  0  0999 V2000
   -0.9730   12.6150   -4.3930 O   0  0  0  0  0  0  0  0  0  0  0  0
   -0.6780   14.0270   -4.2970 C   0  0  1  0  0  0  0  0  0  0  0  0
   -0.2440   14.4320   -2.8810 C   0  0  2  0  0  0  0  0  0  0  0  0
    0.6220   14.3050   -5.0520 C   0  0  2  0  0  0  0  0  0  0  0  0
    1.5600   13.2360   -4.9040 O   0  0  0  0  0  0  0  0  0  0  0  0
   -1.2810   14.5190   -1.8340 N   0  0  0  0  0  0  0  0  0  0  0  0
    0.4450   15.6830   -3.1110 O   0  0  0  0  0  0  0  0  0  0  0  0
    1.1120   15.5950   -4.3840 C   0  0  2  0  0  0  0  0  0  0  0  0
    0.8200   16.8590   -5.1820 C   0  0  0  0  0  0  0  0  0  0  0  0
   -2.5560   14.8050   -1.7800 C   0  0  0  0  0  0  0  0  0  0  0  0
   -3.3250   15.1280   -2.8710 N   0  0  0  0  0  0  0  0  0  0  0  0
   -3.3210   14.8310   -0.5130 C   0  0  0  0  0  0  0  0  0  0  0  0
   -2.8070   14.9960    0.7640 C   0  0  0  0  0  0  0  0  0  0  0  0
   -4.7150   14.6800   -0.4220 N   0  0  0  0  0  0  0  0  0  0  0  0
   -3.8650   14.9440    1.6140 N   0  0  0  0  0  0  0  0  0  0  0  0
   -4.9870   14.7520    0.8750 C   0  0  0  0  0  0  0  0  0  0  0  0
   -6.3820   14.6380    1.5400 C   0  0  0  0  0  0  0  0  0  0  0  0
   -7.6330   14.6380    0.7010 C   0  0  0  0  0  0  0  0  0  0  0  0
   -7.1680   13.3700    1.3590 C   0  0  0  0  0  0  0  0  0  0  0  0
  2  1  1  1
  2  3  1  0
  2  4  1  0
  4  5  1  1
  3  6  1  1
  3  7  1  0
  4  8  1  0
  7  8  1  0
  8  9  1  6
  6 10  2  3
 10 11  1  0
 10 12  1  0
 12 13  2  0
 12 14  1  0
 13 15  1  0
 14 16  2  0
 15 16  1  0
 16 17  1  0
 17 18  1  0
 17 19  1  0
 18 19  1  0
M  END
>  <comRMSD>  (45) 
0.305979

>  <∆∆G>  (45) 
-5.929062

>  <N_constrained_atoms>  (45) 
19.0

>  <LE>  (45) 
-0.312056

>  <ref_pdb>  (45) 
x0104_0

>  <ref_mols>  (45) 
x0421_0_A_α

>  <%Rank>  (45) 
0.754976

>  <generation_date>  (45) 
nan

>  <method>  (45) 
nan

>  <submitter_email>  (45) 
nan

>  <original SMILES>  (45) 
CC1OC(N=C(N)c2c[nH]c(C3CC3)n2)C(O)C1O

>  <ref_url>  (45) 
nan

>  <submitter_name>  (45) 
nan

>  <submitter_institution>  (45) 
nan

$$$$
x0438_0_A_α-x0766_0_A_α
     RDKit          3D

 25 28  0  0  0  0  0  0  0  0999 V2000
   -8.1570   15.6190    3.9090 C   0  0  0  0  0  0  0  0  0  0  0  0
   -9.2730   15.3780    2.5380 S   0  0  0  0  0  0  0  0  0  0  0  0
  -10.4850   14.8020    3.1000 O   0  0  0  0  0  0  0  0  0  0  0  0
   -8.5570   14.1150    1.5260 C   0  0  0  0  0  0  0  0  0  0  0  0
   -9.3940   16.5890    1.7650 O   0  0  0  0  0  0  0  0  0  0  0  0
   -7.2710   14.4360    0.8250 C   0  0  0  0  0  0  0  0  0  0  0  0
   -7.1990   14.7790   -0.4400 N   0  0  0  0  0  0  0  0  0  0  0  0
   -6.0590   14.3400    1.5040 N   0  0  0  0  0  0  0  0  0  0  0  0
   -5.1560   14.5760    0.5940 C   0  0  0  0  0  0  0  0  0  0  0  0
   -5.8470   14.8140   -0.6840 C   0  0  0  0  0  0  0  0  0  0  0  0
   -5.1710   14.9790   -1.8270 C   0  0  0  0  0  0  0  0  0  0  0  0
   -3.6750   14.5920    0.6840 C   0  0  0  0  0  0  0  0  0  0  0  0
   -3.7370   14.8630   -1.7480 C   0  0  0  0  0  0  0  0  0  0  0  0
   -3.0220   14.7150   -0.4890 C   0  0  0  0  0  0  0  0  0  0  0  0
   -2.8050   14.8270   -2.7240 C   0  0  0  0  0  0  0  0  0  0  0  0
   -1.6010   14.6820   -0.7770 C   0  0  0  0  0  0  0  0  0  0  0  0
   -1.4630   14.6970   -2.1270 C   0  0  0  0  0  0  0  0  0  0  0  0
   -0.1800   14.6060   -2.9270 C   0  0  1  0  0  0  0  0  0  0  0  0
    0.1030   13.3310   -3.7500 C   0  0  2  0  0  0  0  0  0  0  0  0
    0.1940   15.7450   -3.8740 C   0  0  0  0  0  0  0  0  0  0  0  0
    0.5850   12.2130   -2.8570 C   0  0  0  0  0  0  0  0  0  0  0  0
    1.2370   13.7110   -4.7270 C   0  0  0  0  0  0  0  0  0  0  0  0
    1.4380   15.2220   -4.5740 C   0  0  0  0  0  0  0  0  0  0  0  0
    1.3130   12.3390   -1.9000 O   0  0  0  0  0  0  0  0  0  0  0  0
    0.1170   10.9990   -3.2040 O   0  0  0  0  0  0  0  0  0  0  0  0
  2  1  1  0
  2  3  2  0
  2  4  1  0
  2  5  2  0
  4  6  1  0
  6  7  2  0
  6  8  1  0
  8  9  2  0
  7 10  1  0
  9 10  1  0
 10 11  2  0
  9 12  1  0
 11 13  1  0
 12 14  2  0
 13 14  1  0
 13 15  2  0
 14 16  1  0
 15 17  1  0
 16 17  2  0
 18 17  1  6
 18 19  1  0
 18 20  1  0
 19 21  1  1
 19 22  1  0
 20 23  1  0
 22 23  1  0
 21 24  2  0
 21 25  1  0
M  END
>  <comRMSD>  (46) 
0.436177

>  <∆∆G>  (46) 
-9.125771

>  <N_constrained_atoms>  (46) 
25.0

>  <LE>  (46) 
-0.365031

>  <ref_pdb>  (46) 
x0104_0

>  <ref_mols>  (46) 
x0438_0_A_α,x0766_0_A_α

>  <%Rank>  (46) 
0.772135

>  <generation_date>  (46) 
nan

>  <method>  (46) 
nan

>  <submitter_email>  (46) 
nan

>  <original SMILES>  (46) 
CS(=O)(=O)CC1=Nc2cc3c(cc2=N1)C=C(C1CCCC1C(=O)O)C=3

>  <ref_url>  (46) 
nan

>  <submitter_name>  (46) 
nan

>  <submitter_institution>  (46) 
nan

$$$$
x0128_0_A_α-x0104_0_A_β
     RDKit          3D

 18 19  0  0  0  0  0  0  0  0999 V2000
   -6.7090   14.5860    2.4930 N   0  0  0  0  0  0  0  0  0  0  0  0
   -7.8030   15.1910    3.0940 C   0  0  0  0  0  0  0  0  0  0  0  0
   -8.8460   15.4840    2.5180 O   0  0  0  0  0  0  0  0  0  0  0  0
   -6.2160   14.7820    1.1920 C   0  0  0  0  0  0  0  0  0  0  0  0
   -7.5460   15.4320    4.4410 N   0  0  0  0  0  0  0  0  0  0  0  0
   -6.9990   14.6800    0.0520 C   0  0  0  0  0  0  0  0  0  0  0  0
   -4.8540   15.1010    1.0570 C   0  0  0  0  0  0  0  0  0  0  0  0
   -6.4480   14.8930   -1.2150 C   0  0  0  0  0  0  0  0  0  0  0  0
   -4.3030   15.3120   -0.2100 C   0  0  0  0  0  0  0  0  0  0  0  0
   -8.3910   16.1140    5.3450 C   0  0  0  0  0  0  0  0  0  0  0  0
   -5.1010   15.2090   -1.3490 C   0  0  0  0  0  0  0  0  0  0  0  0
   -9.0870   17.2400    4.9020 C   0  0  0  0  0  0  0  0  0  0  0  0
   -8.5860   15.7400    6.6700 C   0  0  0  0  0  0  0  0  0  0  0  0
   -4.4640   15.4350   -2.5330 O   0  0  0  0  0  0  0  0  0  0  0  0
   -9.9260   17.9830    5.6600 N   0  0  0  0  0  0  0  0  0  0  0  0
   -9.4450   16.4860    7.4800 C   0  0  0  0  0  0  0  0  0  0  0  0
   -3.1770   14.8670   -2.6950 C   0  0  0  0  0  0  0  0  0  0  0  0
  -10.0840   17.5860    6.9350 C   0  0  0  0  0  0  0  0  0  0  0  0
  1  2  1  0
  2  3  2  0
  1  4  1  0
  2  5  1  0
  4  6  2  0
  4  7  1  0
  6  8  1  0
  7  9  2  0
  5 10  1  0
  8 11  2  0
  9 11  1  0
 10 12  2  0
 10 13  1  0
 11 14  1  0
 12 15  1  0
 13 16  2  0
 14 17  1  0
 15 18  2  0
 16 18  1  0
M  END
>  <comRMSD>  (47) 
0.309136

>  <∆∆G>  (47) 
-6.313972

>  <N_constrained_atoms>  (47) 
18.0

>  <LE>  (47) 
-0.350776

>  <ref_pdb>  (47) 
x0104_0

>  <ref_mols>  (47) 
x0128_0_A_α,x0104_0_A_β

>  <%Rank>  (47) 
0.789293

>  <generation_date>  (47) 
nan

>  <method>  (47) 
nan

>  <submitter_email>  (47) 
nan

>  <original SMILES>  (47) 
COc1ccc(NC(=O)Nc2cccnc2)cc1

>  <ref_url>  (47) 
nan

>  <submitter_name>  (47) 
nan

>  <submitter_institution>  (47) 
nan

$$$$
x0628_0_A_α-x0282_0_A_α
     RDKit          3D

 27 29  0  0  0  0  0  0  0  0999 V2000
   -0.8410    8.9110   -7.2820 C   0  0  0  0  0  0  0  0  0  0  0  0
   -0.8690   10.1390   -6.4670 C   0  0  0  0  0  0  0  0  0  0  0  0
   -1.8660   10.4090   -5.5690 N   0  0  0  0  0  0  0  0  0  0  0  0
    0.0800   11.0730   -6.5510 N   0  0  0  0  0  0  0  0  0  0  0  0
   -0.3460   11.9760   -5.6500 N   0  0  0  0  0  0  0  0  0  0  0  0
   -1.5170   11.5730   -5.0610 C   0  0  0  0  0  0  0  0  0  0  0  0
   -2.2470   12.3430   -4.0270 C   0  0  0  0  0  0  0  0  0  0  0  0
    0.4300   13.1730   -5.4330 C   0  0  0  0  0  0  0  0  0  0  0  0
    1.6280   12.9180   -4.5410 C   0  0  0  0  0  0  0  0  0  0  0  0
    1.1450   12.3920   -3.2210 C   0  0  0  0  0  0  0  0  0  0  0  0
    0.6990   11.2680   -3.0040 O   0  0  0  0  0  0  0  0  0  0  0  0
    1.2790   13.3680   -2.3050 O   0  0  0  0  0  0  0  0  0  0  0  0
    0.2890   14.4120   -2.4060 C   0  0  0  0  0  0  0  0  0  0  0  0
   -0.3560   14.4950   -1.0610 C   0  0  0  0  0  0  0  0  0  0  0  0
   -1.6770   14.4240   -0.9410 N   0  0  0  0  0  0  0  0  0  0  0  0
    0.4560   14.6260   -0.0080 C   0  0  0  0  0  0  0  0  0  0  0  0
   -0.1320   14.6600    1.2280 C   0  0  0  0  0  0  0  0  0  0  0  0
   -2.1870   14.4760    0.2890 C   0  0  0  0  0  0  0  0  0  0  0  0
   -3.5280   14.4080    0.3910 N   0  0  0  0  0  0  0  0  0  0  0  0
   -1.4470   14.5840    1.4120 N   0  0  0  0  0  0  0  0  0  0  0  0
   -4.0500   14.1470    1.7110 C   0  0  0  0  0  0  0  0  0  0  0  0
   -4.3330   14.5340   -0.8360 C   0  0  0  0  0  0  0  0  0  0  0  0
   -5.3520   14.8810    1.8410 C   0  0  0  0  0  0  0  0  0  0  0  0
   -5.7860   14.9500   -0.5620 C   0  0  0  0  0  0  0  0  0  0  0  0
   -6.2570   14.3440    0.7610 C   0  0  0  0  0  0  0  0  0  0  0  0
   -7.7470   14.4810    1.0970 C   0  0  0  0  0  0  0  0  0  0  0  0
   -8.5440   14.6630   -0.0630 O   0  0  0  0  0  0  0  0  0  0  0  0
  1  2  1  0
  2  3  1  0
  2  4  2  0
  4  5  1  0
  3  6  2  0
  5  6  1  0
  6  7  1  0
  5  8  1  0
  8  9  1  0
  9 10  1  0
 10 11  2  0
 10 12  1  0
 12 13  1  0
 13 14  1  0
 14 15  2  0
 14 16  1  0
 16 17  2  0
 15 18  1  0
 18 19  1  0
 17 20  1  0
 18 20  2  0
 19 21  1  0
 19 22  1  0
 21 23  1  0
 22 24  1  0
 23 25  1  0
 24 25  1  0
 25 26  1  0
 26 27  1  0
M  END
>  <comRMSD>  (48) 
0.316042

>  <∆∆G>  (48) 
-7.584593

>  <N_constrained_atoms>  (48) 
26.0

>  <LE>  (48) 
-0.280911

>  <ref_pdb>  (48) 
x0104_0

>  <ref_mols>  (48) 
x0628_0_A_α,x0282_0_A_α

>  <%Rank>  (48) 
0.806452

>  <generation_date>  (48) 
nan

>  <method>  (48) 
nan

>  <submitter_email>  (48) 
nan

>  <original SMILES>  (48) 
Cc1nc(C)n(CCC(=O)OCc2ccnc(N3CCC(CO)CC3)n2)n1

>  <ref_url>  (48) 
nan

>  <submitter_name>  (48) 
nan

>  <submitter_institution>  (48) 
nan

$$$$
x0727_0_A_α-x0282_0_A_α
     RDKit          3D

 28 30  0  0  0  0  0  0  0  0999 V2000
    0.1650   11.4130   -5.5930 N   0  0  0  0  0  0  0  0  0  0  0  0
    0.9160   12.3570   -4.7730 C   0  0  1  0  0  0  0  0  0  0  0  0
    0.5280   13.7890   -5.1150 C   0  0  0  0  0  0  0  0  0  0  0  0
    0.6920   11.0680   -6.7970 C   0  0  0  0  0  0  0  0  0  0  0  0
    1.6330   11.6750   -7.2390 O   0  0  0  0  0  0  0  0  0  0  0  0
    0.6830   12.0340   -3.2960 C   0  0  0  0  0  0  0  0  0  0  0  0
    0.0880    9.8900   -7.5360 C   0  0  0  0  0  0  0  0  0  0  0  0
    0.2010   10.9790   -2.8750 O   0  0  0  0  0  0  0  0  0  0  0  0
    1.0910   13.0690   -2.5180 O   0  0  0  0  0  0  0  0  0  0  0  0
   -1.2130   10.2580   -8.2580 C   0  0  0  0  0  0  0  0  0  0  0  0
   -0.2430    8.6910   -6.6290 C   0  0  0  0  0  0  0  0  0  0  0  0
    0.2370   14.2380   -2.5160 C   0  0  0  0  0  0  0  0  0  0  0  0
   -2.1500    9.0810   -8.0330 C   0  0  0  0  0  0  0  0  0  0  0  0
   -1.7550    8.5420   -6.6710 C   0  0  0  0  0  0  0  0  0  0  0  0
   -0.3350   14.3630   -1.1350 C   0  0  0  0  0  0  0  0  0  0  0  0
   -1.6540   14.2540   -0.9840 N   0  0  0  0  0  0  0  0  0  0  0  0
    0.4850   14.5720   -0.0890 C   0  0  0  0  0  0  0  0  0  0  0  0
   -0.1050   14.6450    1.1540 C   0  0  0  0  0  0  0  0  0  0  0  0
   -2.1670   14.3420    0.2430 C   0  0  0  0  0  0  0  0  0  0  0  0
   -3.5240   14.2320    0.3410 N   0  0  0  0  0  0  0  0  0  0  0  0
   -1.4240   14.5290    1.3570 N   0  0  0  0  0  0  0  0  0  0  0  0
   -3.9590   14.2270    1.7270 C   0  0  0  0  0  0  0  0  0  0  0  0
   -4.2690   14.9760   -0.6890 C   0  0  0  0  0  0  0  0  0  0  0  0
   -5.2680   14.9620    1.8430 C   0  0  0  0  0  0  0  0  0  0  0  0
   -5.7980   14.8880   -0.5240 C   0  0  0  0  0  0  0  0  0  0  0  0
   -6.1970   14.3220    0.8410 C   0  0  0  0  0  0  0  0  0  0  0  0
   -7.6750   14.3920    1.2230 C   0  0  0  0  0  0  0  0  0  0  0  0
   -8.5200   14.6110    0.1040 O   0  0  0  0  0  0  0  0  0  0  0  0
  1  2  1  0
  2  3  1  1
  1  4  1  0
  4  5  2  0
  2  6  1  0
  4  7  1  0
  6  8  2  0
  6  9  1  0
  7 10  1  0
  7 11  1  0
  9 12  1  0
 10 13  1  0
 11 14  1  0
 13 14  1  0
 12 15  1  0
 15 16  2  0
 15 17  1  0
 17 18  2  0
 16 19  1  0
 19 20  1  0
 18 21  1  0
 19 21  2  0
 20 22  1  0
 20 23  1  0
 22 24  1  0
 23 25  1  0
 24 26  1  0
 25 26  1  0
 26 27  1  0
 27 28  1  0
M  END
>  <comRMSD>  (49) 
0.337547

>  <∆∆G>  (49) 
-8.031468

>  <N_constrained_atoms>  (49) 
27.0

>  <LE>  (49) 
-0.286838

>  <ref_pdb>  (49) 
x0104_0

>  <ref_mols>  (49) 
x0727_0_A_α,x0282_0_A_α

>  <%Rank>  (49) 
0.82361

>  <generation_date>  (49) 
nan

>  <method>  (49) 
nan

>  <submitter_email>  (49) 
nan

>  <original SMILES>  (49) 
C[C@H](NC(=O)C1CCCC1)C(=O)OCc1ccnc(N2CCC(CO)CC2)n1

>  <ref_url>  (49) 
nan

>  <submitter_name>  (49) 
nan

>  <submitter_institution>  (49) 
nan

$$$$
x0727_0_A_α-x0290_0_A_α
     RDKit          3D

 28 29  0  0  0  0  0  0  0  0999 V2000
    0.1230   11.4130   -5.6110 N   0  0  0  0  0  0  0  0  0  0  0  0
    0.8940   12.3090   -4.7430 C   0  0  1  0  0  0  0  0  0  0  0  0
    0.4460   13.7620   -4.8920 C   0  0  0  0  0  0  0  0  0  0  0  0
    0.6960   11.0790   -6.8120 C   0  0  0  0  0  0  0  0  0  0  0  0
    1.6380   11.6980   -7.2260 O   0  0  0  0  0  0  0  0  0  0  0  0
    0.7220   11.8290   -3.3000 C   0  0  0  0  0  0  0  0  0  0  0  0
    0.0900    9.8850   -7.5450 C   0  0  0  0  0  0  0  0  0  0  0  0
    0.0330   10.8870   -2.9330 O   0  0  0  0  0  0  0  0  0  0  0  0
    1.4320   12.5510   -2.4100 O   0  0  0  0  0  0  0  0  0  0  0  0
    1.1450   14.7070   -3.9050 C   0  0  0  0  0  0  0  0  0  0  0  0
   -1.2100   10.2750   -8.2560 C   0  0  0  0  0  0  0  0  0  0  0  0
   -0.2620    8.6990   -6.6270 C   0  0  0  0  0  0  0  0  0  0  0  0
    0.1920   15.4210   -2.9440 C   0  0  0  0  0  0  0  0  0  0  0  0
   -2.1580    9.1080   -8.0280 C   0  0  0  0  0  0  0  0  0  0  0  0
   -1.7760    8.5790   -6.6600 C   0  0  0  0  0  0  0  0  0  0  0  0
   -1.0550   14.6240   -2.5070 C   0  0  0  0  0  0  0  0  0  0  0  0
   -1.2980   14.6000   -1.0070 C   0  0  0  0  0  0  0  0  0  0  0  0
   -0.2300   14.5300   -0.1110 C   0  0  0  0  0  0  0  0  0  0  0  0
   -2.6010   14.6530   -0.4730 C   0  0  0  0  0  0  0  0  0  0  0  0
   -0.5010   14.5120    1.2420 C   0  0  0  0  0  0  0  0  0  0  0  0
   -2.7800   14.6300    0.9150 C   0  0  0  0  0  0  0  0  0  0  0  0
   -4.0840   14.6800    1.4190 N   0  0  0  0  0  0  0  0  0  0  0  0
   -1.7410   14.5590    1.7650 N   0  0  0  0  0  0  0  0  0  0  0  0
   -5.2700   14.4130    0.8080 C   0  0  0  0  0  0  0  0  0  0  0  0
   -5.3120   14.4260   -0.4300 O   0  0  0  0  0  0  0  0  0  0  0  0
   -6.5120   14.0980    1.6650 C   0  0  0  0  0  0  0  0  0  0  0  0
   -7.6810   13.8170    0.8040 N   0  0  0  0  0  0  0  0  0  0  0  0
   -8.5990   14.9400    0.7490 C   0  0  0  0  0  0  0  0  0  0  0  0
  1  2  1  0
  2  3  1  1
  1  4  1  0
  4  5  2  0
  2  6  1  0
  4  7  1  0
  6  8  2  0
  6  9  1  0
  3 10  1  0
  7 11  1  0
  7 12  1  0
 10 13  1  0
 11 14  1  0
 12 15  1  0
 14 15  1  0
 13 16  1  0
 16 17  1  0
 17 18  2  0
 17 19  1  0
 18 20  1  0
 19 21  2  0
 21 22  1  0
 20 23  2  0
 21 23  1  0
 22 24  1  0
 24 25  2  0
 24 26  1  0
 26 27  1  0
 27 28  1  0
M  END
>  <comRMSD>  (50) 
0.224357

>  <∆∆G>  (50) 
-8.046514

>  <N_constrained_atoms>  (50) 
26.0

>  <LE>  (50) 
-0.287375

>  <ref_pdb>  (50) 
x0104_0

>  <ref_mols>  (50) 
x0727_0_A_α,x0290_0_A_α

>  <%Rank>  (50) 
0.840769

>  <generation_date>  (50) 
nan

>  <method>  (50) 
nan

>  <submitter_email>  (50) 
nan

>  <original SMILES>  (50) 
CNCC(=O)Nc1cc(CCCC[C@H](NC(=O)C2CCCC2)C(=O)O)ccn1

>  <ref_url>  (50) 
nan

>  <submitter_name>  (50) 
nan

>  <submitter_institution>  (50) 
nan

$$$$
x0969_0_A_α-x1015_0_A_α
     RDKit          3D

 27 30  0  0  0  0  0  0  0  0999 V2000
   -6.7390   14.7570    2.5040 N   0  0  0  0  0  0  0  0  0  0  0  0
   -6.5940   14.7520    1.1660 C   0  0  0  0  0  0  0  0  0  0  0  0
   -7.5350   14.5350    0.2760 N   0  0  0  0  0  0  0  0  0  0  0  0
   -5.3920   14.9930    0.5160 N   0  0  0  0  0  0  0  0  0  0  0  0
   -6.9780   14.6270   -0.9760 N   0  0  0  0  0  0  0  0  0  0  0  0
   -5.7020   14.8980   -0.8280 C   0  0  0  0  0  0  0  0  0  0  0  0
   -4.1080   15.2770    0.9870 C   0  0  0  0  0  0  0  0  0  0  0  0
   -4.6560   15.0940   -1.7600 C   0  0  0  0  0  0  0  0  0  0  0  0
   -3.1140   15.4650    0.0980 C   0  0  0  0  0  0  0  0  0  0  0  0
   -3.4040   15.3630   -1.3390 C   0  0  0  0  0  0  0  0  0  0  0  0
   -2.2700   15.5510   -2.3180 C   0  0  0  0  0  0  0  0  0  0  0  0
   -2.1290   14.3790   -3.2950 C   0  0  0  0  0  0  0  0  0  0  0  0
   -1.0570   14.4830   -4.3760 C   0  0  0  0  0  0  0  0  0  0  0  0
    0.1970   13.6650   -4.0150 C   0  0  2  0  0  0  0  0  0  0  0  0
   -0.0550   12.2210   -3.9460 N   0  0  0  0  0  0  0  0  0  0  0  0
    0.5630   13.9080   -2.5560 C   0  0  0  0  0  0  0  0  0  0  0  0
    0.6430   14.9930   -2.0000 O   0  0  0  0  0  0  0  0  0  0  0  0
    0.3360   11.6960   -2.7030 C   0  0  0  0  0  0  0  0  0  0  0  0
    0.8000   12.7240   -1.9500 N   0  0  0  0  0  0  0  0  0  0  0  0
   -0.4520   11.4330   -5.0590 C   0  0  0  0  0  0  0  0  0  0  0  0
    0.3000   10.5310   -2.3010 O   0  0  0  0  0  0  0  0  0  0  0  0
   -0.0330   11.7490   -6.3630 C   0  0  0  0  0  0  0  0  0  0  0  0
   -1.2750   10.3140   -4.8980 C   0  0  0  0  0  0  0  0  0  0  0  0
   -0.4280   10.9680   -7.4560 C   0  0  0  0  0  0  0  0  0  0  0  0
   -1.6780    9.5340   -5.9820 C   0  0  0  0  0  0  0  0  0  0  0  0
   -1.2510    9.8640   -7.2610 C   0  0  0  0  0  0  0  0  0  0  0  0
   -1.7430    8.9040   -8.5980 Cl  0  0  0  0  0  0  0  0  0  0  0  0
  1  2  1  0
  2  3  2  0
  2  4  1  0
  3  5  1  0
  4  6  1  0
  5  6  2  0
  4  7  1  0
  6  8  1  0
  7  9  2  0
  8 10  2  0
  9 10  1  0
 10 11  1  0
 11 12  1  0
 12 13  1  0
 14 13  1  1
 14 15  1  0
 14 16  1  0
 16 17  2  0
 15 18  1  0
 16 19  1  0
 18 19  1  0
 15 20  1  0
 18 21  2  0
 20 22  2  0
 20 23  1  0
 22 24  1  0
 23 25  2  0
 24 26  2  0
 25 26  1  0
 26 27  1  0
M  END
>  <comRMSD>  (51) 
0.24454

>  <∆∆G>  (51) 
-9.952178

>  <N_constrained_atoms>  (51) 
25.0

>  <LE>  (51) 
-0.368599

>  <ref_pdb>  (51) 
x0104_0

>  <ref_mols>  (51) 
x0969_0_A_α,x1015_0_A_α

>  <%Rank>  (51) 
0.857927

>  <generation_date>  (51) 
nan

>  <method>  (51) 
nan

>  <submitter_email>  (51) 
nan

>  <original SMILES>  (51) 
Nc1nnc2cc(CCCC3C(=O)NC(=O)N3c3ccc(Cl)cc3)ccn12

>  <ref_url>  (51) 
nan

>  <submitter_name>  (51) 
nan

>  <submitter_institution>  (51) 
nan

$$$$
1VHU_0_A_α-x1012_0_A_α
     RDKit          3D

 25 26  0  0  0  0  0  0  0  0999 V2000
    0.1310   18.8400   -8.7020 O   0  0  0  0  0  0  0  0  0  0  0  0
   -0.0180   20.1090   -7.7040 S   0  0  0  0  0  0  0  0  0  0  0  0
   -0.5030   19.7440   -6.2420 O   0  0  0  0  0  0  0  0  0  0  0  0
    1.3120   21.0210   -7.6400 O   0  0  0  0  0  0  0  0  0  0  0  0
   -1.3100   21.1550   -8.3430 C   0  0  0  0  0  0  0  0  0  0  0  0
   -2.0040   21.9420   -7.2560 C   0  0  0  0  0  0  0  0  0  0  0  0
   -1.5490   18.8590   -6.0090 C   0  0  0  0  0  0  0  0  0  0  0  0
   -0.9520   18.0250   -5.0270 N   0  0  0  0  0  0  0  0  0  0  0  0
   -3.4380   22.2140   -7.5360 N   0  0  0  0  0  0  0  0  0  0  0  0
   -1.5560   16.8880   -4.6970 C   0  0  0  0  0  0  0  0  0  0  0  0
   -3.6390   22.6420   -8.9380 C   0  0  0  0  0  0  0  0  0  0  0  0
   -3.8570   23.3810   -6.7220 C   0  0  0  0  0  0  0  0  0  0  0  0
   -2.7070   16.9150   -4.2950 O   0  0  0  0  0  0  0  0  0  0  0  0
   -5.0590   23.1110   -9.2740 C   0  0  0  0  0  0  0  0  0  0  0  0
   -5.2700   23.8590   -7.0590 C   0  0  0  0  0  0  0  0  0  0  0  0
   -0.7960   15.7540   -4.8290 N   0  0  0  0  0  0  0  0  0  0  0  0
   -5.4040   24.2230   -8.4370 O   0  0  0  0  0  0  0  0  0  0  0  0
   -1.4950   14.4950   -5.0080 C   0  0  0  0  0  0  0  0  0  0  0  0
    0.6590   15.7040   -4.6160 C   0  0  0  0  0  0  0  0  0  0  0  0
   -1.1130   13.4790   -3.9590 C   0  0  0  0  0  0  0  0  0  0  0  0
    1.0600   14.7500   -3.4920 C   0  0  0  0  0  0  0  0  0  0  0  0
    0.3860   13.3810   -3.6590 C   0  0  0  0  0  0  0  0  0  0  0  0
    0.5460   12.4830   -2.4480 C   0  0  0  0  0  0  0  0  0  0  0  0
    0.6140   11.1900   -2.8080 O   0  0  0  0  0  0  0  0  0  0  0  0
    0.6040   12.8050   -1.2760 O   0  0  0  0  0  0  0  0  0  0  0  0
  2  1  1  0
  2  3  1  0
  2  4  1  0
  2  5  1  0
  5  6  1  0
  3  7  1  0
  7  8  1  0
  6  9  1  0
  8 10  1  0
  9 11  1  0
  9 12  1  0
 10 13  2  0
 11 14  1  0
 12 15  1  0
 10 16  1  0
 14 17  1  0
 15 17  1  0
 16 18  1  0
 16 19  1  0
 18 20  1  0
 19 21  1  0
 20 22  1  0
 21 22  1  0
 22 23  1  0
 23 24  1  0
 23 25  2  0
M  END
>  <comRMSD>  (52) 
0.392505

>  <∆∆G>  (52) 
-12.511606

>  <N_constrained_atoms>  (52) 
24.0

>  <LE>  (52) 
-0.500464

>  <ref_pdb>  (52) 
x0104_0

>  <ref_mols>  (52) 
x1012_0_A_α

>  <%Rank>  (52) 
0.875086

>  <generation_date>  (52) 
nan

>  <method>  (52) 
nan

>  <submitter_email>  (52) 
nan

>  <original SMILES>  (52) 
O=C(O)C1CCN(C(=O)NCOS(O)(O)CCN2CCOCC2)CC1

>  <ref_url>  (52) 
nan

>  <submitter_name>  (52) 
nan

>  <submitter_institution>  (52) 
nan

$$$$
x0685_0_A_α-x0128_0_A_α
     RDKit          3D

 19 20  0  0  0  0  0  0  0  0999 V2000
   -6.0560   15.0620    2.6740 N   0  0  0  0  0  0  0  0  0  0  0  0
   -7.4360   14.8440    3.0490 C   0  0  2  0  0  0  0  0  0  0  0  0
   -7.7390   13.3500    2.9530 C   0  0  0  0  0  0  0  0  0  0  0  0
   -5.3990   15.0330    1.4560 C   0  0  0  0  0  0  0  0  0  0  0  0
   -8.4220   15.5300    2.3170 O   0  0  0  0  0  0  0  0  0  0  0  0
   -7.5480   15.2110    4.4490 N   0  0  0  0  0  0  0  0  0  0  0  0
   -4.0140   15.1040    1.3520 C   0  0  0  0  0  0  0  0  0  0  0  0
   -6.1780   14.9450    0.3540 N   0  0  0  0  0  0  0  0  0  0  0  0
   -3.4080   15.1020    0.1050 C   0  0  0  0  0  0  0  0  0  0  0  0
   -5.5690   14.9490   -0.8570 C   0  0  0  0  0  0  0  0  0  0  0  0
   -8.4020   16.0480    5.1950 C   0  0  0  0  0  0  0  0  0  0  0  0
   -4.1980   15.0280   -1.0330 C   0  0  0  0  0  0  0  0  0  0  0  0
   -9.0880   17.1890    4.7650 C   0  0  0  0  0  0  0  0  0  0  0  0
   -8.6020   15.7170    6.5440 C   0  0  0  0  0  0  0  0  0  0  0  0
   -3.6270   15.0330   -2.3380 C   0  0  0  0  0  0  0  0  0  0  0  0
   -9.8970   17.9590    5.5410 N   0  0  0  0  0  0  0  0  0  0  0  0
   -9.4250   16.4870    7.3690 C   0  0  0  0  0  0  0  0  0  0  0  0
   -3.1640   15.0590   -3.4010 N   0  0  0  0  0  0  0  0  0  0  0  0
  -10.0470   17.5920    6.8250 C   0  0  0  0  0  0  0  0  0  0  0  0
  1  2  1  0
  2  3  1  1
  1  4  1  0
  2  5  1  0
  2  6  1  0
  4  7  2  0
  4  8  1  0
  7  9  1  0
  8 10  2  0
  6 11  1  0
  9 12  2  0
 10 12  1  0
 11 13  2  0
 11 14  1  0
 12 15  1  0
 13 16  1  0
 14 17  2  0
 15 18  3  0
 16 19  2  0
 17 19  1  0
M  END
>  <comRMSD>  (53) 
0.372118

>  <∆∆G>  (53) 
-8.008192

>  <N_constrained_atoms>  (53) 
19.0

>  <LE>  (53) 
-0.421484

>  <ref_pdb>  (53) 
x0104_0

>  <ref_mols>  (53) 
x0685_0_A_α,x0128_0_A_α

>  <%Rank>  (53) 
0.892244

>  <generation_date>  (53) 
nan

>  <method>  (53) 
nan

>  <submitter_email>  (53) 
nan

>  <original SMILES>  (53) 
CC(O)(Nc1cccnc1)Nc1ccc(C#N)cn1

>  <ref_url>  (53) 
nan

>  <submitter_name>  (53) 
nan

>  <submitter_institution>  (53) 
nan

$$$$
6YWK_0_E_α-2BFQ_1_A_α
     RDKit          3D

 17 17  0  0  0  0  0  0  0  0999 V2000
    1.2320   21.0040   -7.6170 O   0  0  0  0  0  0  0  0  0  0  0  0
    0.1220   19.8560   -7.4580 S   0  0  0  0  0  0  0  0  0  0  0  0
    0.4860   18.9770   -6.1750 O   0  0  0  0  0  0  0  0  0  0  0  0
    0.0990   18.8690   -8.7230 O   0  0  0  0  0  0  0  0  0  0  0  0
   -1.4740   20.6460   -7.1600 C   0  0  0  0  0  0  0  0  0  0  0  0
   -1.6040   22.0530   -7.7580 C   0  0  0  0  0  0  0  0  0  0  0  0
   -2.9870   22.3650   -8.2090 N   0  0  0  0  0  0  0  0  0  0  0  0
   -3.6370   23.5840   -7.7630 C   0  0  2  0  0  0  0  0  0  0  0  0
   -3.9060   21.2420   -8.1740 C   0  0  0  0  0  0  0  0  0  0  0  0
   -2.7300   24.5930   -7.6070 O   0  0  0  0  0  0  0  0  0  0  0  0
   -4.4900   23.3840   -6.4790 C   0  0  1  0  0  0  0  0  0  0  0  0
   -5.0840   21.2450   -7.1870 C   0  0  0  0  0  0  0  0  0  0  0  0
   -5.0560   24.5740   -5.9680 O   0  0  0  0  0  0  0  0  0  0  0  0
   -5.5930   22.5590   -6.8680 N   0  0  0  0  0  0  0  0  0  0  0  0
   -6.3080   23.1290   -8.0300 C   0  0  0  0  0  0  0  0  0  0  0  0
   -5.6370   23.3780   -9.3610 C   0  0  0  0  0  0  0  0  0  0  0  0
   -6.6340   23.0500  -10.3290 O   0  0  0  0  0  0  0  0  0  0  0  0
  2  1  1  0
  2  3  1  0
  2  4  1  0
  2  5  1  0
  5  6  1  0
  6  7  1  0
  7  8  1  0
  7  9  1  0
  8 10  1  1
  8 11  1  0
  9 12  1  0
 11 13  1  6
 11 14  1  0
 12 14  1  0
 14 15  1  0
 15 16  1  0
 16 17  1  0
M  END
>  <comRMSD>  (54) 
0.290071

>  <∆∆G>  (54) 
-5.665837

>  <N_constrained_atoms>  (54) 
17.0

>  <LE>  (54) 
-0.333285

>  <ref_pdb>  (54) 
x0104_0

>  <ref_mols>  (54) 


>  <%Rank>  (54) 
0.909403

>  <generation_date>  (54) 
nan

>  <method>  (54) 
nan

>  <submitter_email>  (54) 
nan

>  <original SMILES>  (54) 
OCCN1CCN(CCS(O)(O)O)C(O)C1O

>  <ref_url>  (54) 
nan

>  <submitter_name>  (54) 
nan

>  <submitter_institution>  (54) 
nan

$$$$
x1015_0_A_α-x0290_0_A_α
     RDKit          3D

 27 29  0  0  0  0  0  0  0  0999 V2000
   -1.5450   14.3880   -2.8240 C   0  0  0  0  0  0  0  0  0  0  0  0
   -0.3430   13.7360   -3.5700 C   0  0  2  0  0  0  0  0  0  0  0  0
   -0.3530   12.2660   -3.6930 N   0  0  0  0  0  0  0  0  0  0  0  0
   -1.5560   14.4580   -1.2710 C   0  0  0  0  0  0  0  0  0  0  0  0
    0.8300   13.8830   -2.6250 C   0  0  0  0  0  0  0  0  0  0  0  0
   -0.4090   14.4560   -0.4460 C   0  0  0  0  0  0  0  0  0  0  0  0
   -2.7930   14.5310   -0.6010 C   0  0  0  0  0  0  0  0  0  0  0  0
    1.4300   14.9190   -2.3920 O   0  0  0  0  0  0  0  0  0  0  0  0
    0.3440   11.7070   -2.6170 C   0  0  0  0  0  0  0  0  0  0  0  0
    1.1200   12.6830   -2.0820 N   0  0  0  0  0  0  0  0  0  0  0  0
   -0.6370   11.5210   -4.8790 C   0  0  0  0  0  0  0  0  0  0  0  0
   -0.5690   14.5160    0.9440 C   0  0  0  0  0  0  0  0  0  0  0  0
   -2.8590   14.5890    0.7990 C   0  0  0  0  0  0  0  0  0  0  0  0
    0.3160   10.5590   -2.1830 O   0  0  0  0  0  0  0  0  0  0  0  0
   -4.1340   14.6580    1.3670 N   0  0  0  0  0  0  0  0  0  0  0  0
   -0.0150   11.7730   -6.1160 C   0  0  0  0  0  0  0  0  0  0  0  0
   -1.5750   10.4780   -4.8280 C   0  0  0  0  0  0  0  0  0  0  0  0
   -1.7610   14.5740    1.5780 N   0  0  0  0  0  0  0  0  0  0  0  0
   -5.3500   14.4150    0.7900 C   0  0  0  0  0  0  0  0  0  0  0  0
   -0.3220   11.0060   -7.2530 C   0  0  0  0  0  0  0  0  0  0  0  0
   -1.8850    9.7120   -5.9570 C   0  0  0  0  0  0  0  0  0  0  0  0
   -5.4140   14.4910   -0.4380 O   0  0  0  0  0  0  0  0  0  0  0  0
   -6.5560   14.0550    1.6830 C   0  0  0  0  0  0  0  0  0  0  0  0
   -1.2570    9.9770   -7.1640 C   0  0  0  0  0  0  0  0  0  0  0  0
   -1.6480    9.0240   -8.5420 Cl  0  0  0  0  0  0  0  0  0  0  0  0
   -7.7980   13.7700    0.9250 N   0  0  0  0  0  0  0  0  0  0  0  0
   -8.6090   14.9590    0.6990 C   0  0  0  0  0  0  0  0  0  0  0  0
  2  1  1  1
  2  3  1  0
  1  4  1  0
  2  5  1  0
  4  6  2  0
  4  7  1  0
  5  8  2  0
  3  9  1  0
  5 10  1  0
  9 10  1  0
  3 11  1  0
  6 12  1  0
  7 13  2  0
  9 14  2  0
 13 15  1  0
 11 16  2  0
 11 17  1  0
 12 18  2  0
 13 18  1  0
 15 19  1  0
 16 20  1  0
 17 21  2  0
 19 22  2  0
 19 23  1  0
 20 24  2  0
 21 24  1  0
 24 25  1  0
 23 26  1  0
 26 27  1  0
M  END
>  <comRMSD>  (55) 
0.430806

>  <∆∆G>  (55) 
-7.200933

>  <N_constrained_atoms>  (55) 
27.0

>  <LE>  (55) 
-0.266701

>  <ref_pdb>  (55) 
x0104_0

>  <ref_mols>  (55) 
x1015_0_A_α,x0290_0_A_α

>  <%Rank>  (55) 
0.926561

>  <generation_date>  (55) 
nan

>  <method>  (55) 
nan

>  <submitter_email>  (55) 
nan

>  <original SMILES>  (55) 
CNCC(=O)Nc1cc(CC2C(=O)NC(=O)N2c2ccc(Cl)cc2)ccn1

>  <ref_url>  (55) 
nan

>  <submitter_name>  (55) 
nan

>  <submitter_institution>  (55) 
nan

$$$$
x0852_0_B_α-x0685_0_A_α
     RDKit          3D

 21 22  0  0  0  0  0  0  0  0999 V2000
   -9.7330   17.7370    7.3310 N   0  0  0  0  0  0  0  0  0  0  0  0
   -9.5560   17.2330    6.2990 C   0  0  0  0  0  0  0  0  0  0  0  0
   -9.2960   16.6530    5.0190 C   0  0  0  0  0  0  0  0  0  0  0  0
   -8.2790   15.7080    4.8370 C   0  0  0  0  0  0  0  0  0  0  0  0
  -10.0830   17.0480    3.9300 C   0  0  0  0  0  0  0  0  0  0  0  0
   -7.4760   15.2750    5.8640 O   0  0  0  0  0  0  0  0  0  0  0  0
   -8.0420   15.1610    3.5690 C   0  0  0  0  0  0  0  0  0  0  0  0
   -9.8530   16.4970    2.6740 C   0  0  0  0  0  0  0  0  0  0  0  0
  -10.9100   17.0230    1.1960 Br  0  0  0  0  0  0  0  0  0  0  0  0
   -6.9290   14.1610    3.3700 C   0  0  2  0  0  0  0  0  0  0  0  0
   -8.8440   15.5650    2.4900 C   0  0  0  0  0  0  0  0  0  0  0  0
   -5.6610   14.8400    3.0090 N   0  0  0  0  0  0  0  0  0  0  0  0
   -7.3440   13.1680    2.2890 C   0  0  0  0  0  0  0  0  0  0  0  0
   -5.2090   14.8800    1.6690 C   0  0  0  0  0  0  0  0  0  0  0  0
   -3.8290   14.9530    1.4920 C   0  0  0  0  0  0  0  0  0  0  0  0
   -6.0390   14.8600    0.6020 N   0  0  0  0  0  0  0  0  0  0  0  0
   -3.2870   15.0090    0.2090 C   0  0  0  0  0  0  0  0  0  0  0  0
   -5.4960   14.9170   -0.6430 C   0  0  0  0  0  0  0  0  0  0  0  0
   -4.1360   14.9950   -0.8890 C   0  0  0  0  0  0  0  0  0  0  0  0
   -3.6280   15.0540   -2.2230 C   0  0  0  0  0  0  0  0  0  0  0  0
   -3.2090   15.1130   -3.3040 N   0  0  0  0  0  0  0  0  0  0  0  0
  1  2  3  0
  2  3  1  0
  3  4  2  0
  3  5  1  0
  4  6  1  0
  4  7  1  0
  5  8  2  0
  8  9  1  0
  7 10  1  0
  7 11  2  0
  8 11  1  0
 10 12  1  0
 10 13  1  6
 12 14  1  0
 14 15  2  0
 14 16  1  0
 15 17  1  0
 16 18  2  0
 17 19  2  0
 18 19  1  0
 19 20  1  0
 20 21  3  0
M  END
>  <comRMSD>  (56) 
0.403972

>  <∆∆G>  (56) 
-8.367491

>  <N_constrained_atoms>  (56) 
21.0

>  <LE>  (56) 
-0.398452

>  <ref_pdb>  (56) 
x0104_0

>  <ref_mols>  (56) 
x0852_0_B_α,x0685_0_A_α

>  <%Rank>  (56) 
0.94372

>  <generation_date>  (56) 
nan

>  <method>  (56) 
nan

>  <submitter_email>  (56) 
nan

>  <original SMILES>  (56) 
CC(Nc1ccc(C#N)cn1)c1cc(Br)cc(C#N)c1O

>  <ref_url>  (56) 
nan

>  <submitter_name>  (56) 
nan

>  <submitter_institution>  (56) 
nan

$$$$
6YWK_0_E_α-5CB5_0_J_α
     RDKit          3D

 17 17  0  0  0  0  0  0  0  0999 V2000
    1.2340   20.9410   -7.5840 O   0  0  0  0  0  0  0  0  0  0  0  0
    0.1190   19.7930   -7.4530 S   0  0  0  0  0  0  0  0  0  0  0  0
    0.4210   18.9160   -6.1570 O   0  0  0  0  0  0  0  0  0  0  0  0
    0.1190   18.8130   -8.7170 O   0  0  0  0  0  0  0  0  0  0  0  0
   -1.4790   20.5970   -7.2480 C   0  0  0  0  0  0  0  0  0  0  0  0
   -1.5980   21.7430   -8.2410 C   0  0  0  0  0  0  0  0  0  0  0  0
   -2.7880   22.6180   -8.3480 N   0  0  0  0  0  0  0  0  0  0  0  0
   -3.0460   23.5570   -7.2820 C   0  0  0  0  0  0  0  0  0  0  0  0
   -4.0150   22.0610   -8.8780 C   0  0  2  0  0  0  0  0  0  0  0  0
   -4.5430   23.0940   -9.7110 O   0  0  0  0  0  0  0  0  0  0  0  0
   -4.1650   23.1610   -6.2790 C   0  0  0  0  0  0  0  0  0  0  0  0
   -5.1310   21.6390   -7.8200 C   0  0  1  0  0  0  0  0  0  0  0  0
   -4.7000   20.5370   -7.0340 O   0  0  0  0  0  0  0  0  0  0  0  0
   -5.4310   22.7640   -6.9430 N   0  0  0  0  0  0  0  0  0  0  0  0
   -5.7850   23.9430   -7.7230 C   0  0  0  0  0  0  0  0  0  0  0  0
   -6.8830   23.8520   -8.8050 C   0  0  0  0  0  0  0  0  0  0  0  0
   -7.2490   22.5080   -9.1270 O   0  0  0  0  0  0  0  0  0  0  0  0
  2  1  1  0
  2  3  1  0
  2  4  1  0
  2  5  1  0
  5  6  1  0
  6  7  1  0
  7  8  1  0
  7  9  1  0
  9 10  1  6
  8 11  1  0
  9 12  1  0
 12 13  1  1
 11 14  1  0
 12 14  1  0
 14 15  1  0
 15 16  1  0
 16 17  1  0
M  END
>  <comRMSD>  (57) 
0.335989

>  <∆∆G>  (57) 
-7.103658

>  <N_constrained_atoms>  (57) 
17.0

>  <LE>  (57) 
-0.417862

>  <ref_pdb>  (57) 
x0104_0

>  <ref_mols>  (57) 


>  <%Rank>  (57) 
0.960879

>  <generation_date>  (57) 
nan

>  <method>  (57) 
nan

>  <submitter_email>  (57) 
nan

>  <original SMILES>  (57) 
OCCN1CCN(CCS(O)(O)O)C(O)C1O

>  <ref_url>  (57) 
nan

>  <submitter_name>  (57) 
nan

>  <submitter_institution>  (57) 
nan

$$$$
x0628_0_A_α-x0587_0_A_α
     RDKit          3D

 27 28  0  0  0  0  0  0  0  0999 V2000
   -0.8640    9.0220   -7.3270 C   0  0  0  0  0  0  0  0  0  0  0  0
   -0.8550   10.2180   -6.4590 C   0  0  0  0  0  0  0  0  0  0  0  0
   -1.8460   10.4750   -5.5550 N   0  0  0  0  0  0  0  0  0  0  0  0
    0.1210   11.1270   -6.4960 N   0  0  0  0  0  0  0  0  0  0  0  0
   -0.2840   12.0010   -5.5560 N   0  0  0  0  0  0  0  0  0  0  0  0
   -1.4720   11.6050   -4.9890 C   0  0  0  0  0  0  0  0  0  0  0  0
   -2.2050   12.3370   -3.9140 C   0  0  0  0  0  0  0  0  0  0  0  0
    0.5330   13.1680   -5.2850 C   0  0  0  0  0  0  0  0  0  0  0  0
    1.6210   12.9340   -4.2420 C   0  0  0  0  0  0  0  0  0  0  0  0
   -3.3370   13.2420   -4.4180 C   0  0  0  0  0  0  0  0  0  0  0  0
    1.1000   12.2480   -3.0070 C   0  0  0  0  0  0  0  0  0  0  0  0
   -4.6170   13.1770   -3.5770 C   0  0  0  0  0  0  0  0  0  0  0  0
    0.5800   11.1480   -2.9410 O   0  0  0  0  0  0  0  0  0  0  0  0
    1.2570   12.9880   -1.8930 O   0  0  0  0  0  0  0  0  0  0  0  0
   -4.3990   13.2650   -2.1740 O   0  0  0  0  0  0  0  0  0  0  0  0
   -4.5020   14.5610   -1.5750 C   0  0  0  0  0  0  0  0  0  0  0  0
   -3.2630   14.9700   -1.1570 F   0  0  0  0  0  0  0  0  0  0  0  0
   -4.8040   15.4160   -2.5930 F   0  0  0  0  0  0  0  0  0  0  0  0
   -5.5360   14.6180   -0.4420 C   0  0  0  0  0  0  0  0  0  0  0  0
   -6.8510   14.3790   -0.7090 N   0  0  0  0  0  0  0  0  0  0  0  0
   -5.0700   14.9140    0.7910 N   0  0  0  0  0  0  0  0  0  0  0  0
   -7.7180   14.4510    0.3310 C   0  0  0  0  0  0  0  0  0  0  0  0
   -5.9860   14.9710    1.7750 C   0  0  0  0  0  0  0  0  0  0  0  0
   -7.3320   14.7500    1.6130 C   0  0  0  0  0  0  0  0  0  0  0  0
   -8.1910   14.8660    2.7960 C   0  0  0  0  0  0  0  0  0  0  0  0
   -7.5640   14.7860    3.9980 N   0  0  0  0  0  0  0  0  0  0  0  0
   -9.4040   15.0370    2.7010 O   0  0  0  0  0  0  0  0  0  0  0  0
  1  2  1  0
  2  3  1  0
  2  4  2  0
  4  5  1  0
  3  6  2  0
  5  6  1  0
  6  7  1  0
  5  8  1  0
  8  9  1  0
  7 10  1  0
  9 11  1  0
 10 12  1  0
 11 13  2  0
 11 14  1  0
 12 15  1  0
 15 16  1  0
 16 17  1  0
 16 18  1  0
 16 19  1  0
 19 20  2  0
 19 21  1  0
 20 22  1  0
 21 23  2  0
 22 24  2  0
 23 24  1  0
 24 25  1  0
 25 26  1  0
 25 27  2  0
M  END
>  <comRMSD>  (58) 
0.190571

>  <∆∆G>  (58) 
-6.440645

>  <N_constrained_atoms>  (58) 
25.0

>  <LE>  (58) 
-0.238542

>  <ref_pdb>  (58) 
x0104_0

>  <ref_mols>  (58) 
x0628_0_A_α,x0587_0_A_α

>  <%Rank>  (58) 
0.978037

>  <generation_date>  (58) 
nan

>  <method>  (58) 
nan

>  <submitter_email>  (58) 
nan

>  <original SMILES>  (58) 
Cc1nc(CCCOC(F)(F)c2ncc(C(N)=O)cn2)n(CCC(=O)O)n1

>  <ref_url>  (58) 
nan

>  <submitter_name>  (58) 
nan

>  <submitter_institution>  (58) 
nan

$$$$
x1015_0_A_α-x0969_0_A_α
     RDKit          3D

 27 30  0  0  0  0  0  0  0  0999 V2000
   -1.1970   14.2870   -4.5380 C   0  0  0  0  0  0  0  0  0  0  0  0
    0.0270   13.6050   -3.9320 C   0  0  2  0  0  0  0  0  0  0  0  0
   -0.0580   12.1550   -3.9480 N   0  0  0  0  0  0  0  0  0  0  0  0
    0.0410   13.8280   -2.4190 C   0  0  0  0  0  0  0  0  0  0  0  0
    0.3130   15.0100   -2.0200 N   0  0  0  0  0  0  0  0  0  0  0  0
    0.3300   11.6590   -2.7060 C   0  0  0  0  0  0  0  0  0  0  0  0
    0.7400   12.7450   -2.0010 N   0  0  0  0  0  0  0  0  0  0  0  0
   -0.4670   11.3910   -5.0660 C   0  0  0  0  0  0  0  0  0  0  0  0
    0.3250   10.5090   -2.2710 O   0  0  0  0  0  0  0  0  0  0  0  0
   -0.7040   15.7400   -1.2650 C   0  0  0  0  0  0  0  0  0  0  0  0
    0.0810   11.5980   -6.3410 C   0  0  0  0  0  0  0  0  0  0  0  0
   -1.4370   10.3890   -4.9230 C   0  0  0  0  0  0  0  0  0  0  0  0
   -2.0550   15.6500   -1.9890 C   0  0  0  0  0  0  0  0  0  0  0  0
   -0.3300   10.8290   -7.4330 C   0  0  0  0  0  0  0  0  0  0  0  0
   -1.8510    9.6180   -6.0100 C   0  0  0  0  0  0  0  0  0  0  0  0
   -1.2940    9.8410   -7.2640 C   0  0  0  0  0  0  0  0  0  0  0  0
   -3.2520   15.4190   -1.0970 C   0  0  0  0  0  0  0  0  0  0  0  0
   -1.8030    8.8930   -8.6010 Cl  0  0  0  0  0  0  0  0  0  0  0  0
   -4.4800   15.1730   -1.6070 C   0  0  0  0  0  0  0  0  0  0  0  0
   -3.0440   15.4650    0.3520 C   0  0  0  0  0  0  0  0  0  0  0  0
   -5.5790   14.9480   -0.7390 C   0  0  0  0  0  0  0  0  0  0  0  0
   -4.0840   15.2540    1.1720 C   0  0  0  0  0  0  0  0  0  0  0  0
   -6.8480   14.6880   -0.9590 N   0  0  0  0  0  0  0  0  0  0  0  0
   -5.3410   14.9950    0.6260 N   0  0  0  0  0  0  0  0  0  0  0  0
   -6.5730   14.7450    1.2070 C   0  0  0  0  0  0  0  0  0  0  0  0
   -7.4690   14.5610    0.2640 N   0  0  0  0  0  0  0  0  0  0  0  0
   -6.7950   14.7140    2.5380 N   0  0  0  0  0  0  0  0  0  0  0  0
  2  1  1  1
  2  3  1  0
  2  4  1  0
  4  5  2  3
  3  6  1  0
  4  7  1  0
  6  7  1  0
  3  8  1  0
  6  9  2  0
  5 10  1  0
  8 11  2  0
  8 12  1  0
 10 13  1  0
 11 14  1  0
 12 15  2  0
 14 16  2  0
 15 16  1  0
 13 17  1  0
 16 18  1  0
 17 19  2  0
 17 20  1  0
 19 21  1  0
 20 22  2  0
 21 23  2  0
 21 24  1  0
 22 24  1  0
 24 25  1  0
 23 26  1  0
 25 26  2  0
 25 27  1  0
M  END
>  <comRMSD>  (59) 
0.243263

>  <∆∆G>  (59) 
-9.24619

>  <N_constrained_atoms>  (59) 
25.0

>  <LE>  (59) 
-0.342451

>  <ref_pdb>  (59) 
x0104_0

>  <ref_mols>  (59) 
x1015_0_A_α,x0969_0_A_α

>  <%Rank>  (59) 
0.995196

>  <generation_date>  (59) 
nan

>  <method>  (59) 
nan

>  <submitter_email>  (59) 
nan

>  <original SMILES>  (59) 
CC1C(=NCCc2ccn3c(N)nnc3c2)NC(=O)N1c1ccc(Cl)cc1

>  <ref_url>  (59) 
nan

>  <submitter_name>  (59) 
nan

>  <submitter_institution>  (59) 
nan

$$$$
x1012_0_A_α-x0962_0_A_α
     RDKit          3D

 19 20  0  0  0  0  0  0  0  0999 V2000
   -0.3760   18.2660   -4.6870 N   0  0  0  0  0  0  0  0  0  0  0  0
   -1.2500   17.2430   -4.7850 C   0  0  0  0  0  0  0  0  0  0  0  0
   -2.4430   17.4890   -4.7890 O   0  0  0  0  0  0  0  0  0  0  0  0
   -0.7190   15.9780   -4.8390 N   0  0  0  0  0  0  0  0  0  0  0  0
   -1.6870   14.8700   -4.8280 C   0  0  0  0  0  0  0  0  0  0  0  0
    0.6990   15.6670   -4.6150 C   0  0  0  0  0  0  0  0  0  0  0  0
   -1.5100   13.9110   -3.6490 C   0  0  2  0  0  0  0  0  0  0  0  0
    0.9090   14.7310   -3.4250 C   0  0  0  0  0  0  0  0  0  0  0  0
   -2.2280   14.3770   -2.4300 C   0  0  0  0  0  0  0  0  0  0  0  0
   -0.0220   13.5070   -3.5060 C   0  0  1  0  0  0  0  0  0  0  0  0
    0.2100   12.5510   -2.3510 C   0  0  0  0  0  0  0  0  0  0  0  0
   -2.8940   14.6670   -1.4620 C   0  0  0  0  0  0  0  0  0  0  0  0
    0.0370   11.2640   -2.7120 O   0  0  0  0  0  0  0  0  0  0  0  0
    0.5090   12.8270   -1.2020 O   0  0  0  0  0  0  0  0  0  0  0  0
   -3.7410   14.8700   -0.3410 C   0  0  0  0  0  0  0  0  0  0  0  0
   -3.3450   15.1880    0.9280 N   0  0  0  0  0  0  0  0  0  0  0  0
   -5.1120   14.7870   -0.2770 C   0  0  0  0  0  0  0  0  0  0  0  0
   -4.4730   15.2770    1.7030 C   0  0  0  0  0  0  0  0  0  0  0  0
   -5.5560   15.0320    0.9910 N   0  0  0  0  0  0  0  0  0  0  0  0
  1  2  1  0
  2  3  2  0
  2  4  1  0
  4  5  1  0
  4  6  1  0
  5  7  1  0
  6  8  1  0
  7  9  1  1
  7 10  1  0
  8 10  1  0
 10 11  1  1
  9 12  3  0
 11 13  1  0
 11 14  2  0
 12 15  1  0
 15 16  1  0
 15 17  2  0
 16 18  1  0
 17 19  1  0
 18 19  2  0
M  END
>  <comRMSD>  (60) 
0.342136

>  <∆∆G>  (60) 
-6.533803

>  <N_constrained_atoms>  (60) 
19.0

>  <LE>  (60) 
-0.343884

>  <ref_pdb>  (60) 
x0104_0

>  <ref_mols>  (60) 
x1012_0_A_α,x0962_0_A_α

>  <%Rank>  (60) 
1.012354

>  <generation_date>  (60) 
nan

>  <method>  (60) 
nan

>  <submitter_email>  (60) 
nan

>  <original SMILES>  (60) 
NC(=O)N1CCC(C(=O)O)C(C#Cc2cnc[nH]2)C1

>  <ref_url>  (60) 
nan

>  <submitter_name>  (60) 
nan

>  <submitter_institution>  (60) 
nan

$$$$
6mea_B_0_B_β-x0628_0_A_α
     RDKit          3D

 23 23  0  0  0  0  0  0  0  0999 V2000
   -1.5520   20.4820   -8.2320 O   0  0  0  0  0  0  0  0  0  0  0  0
   -0.1890   19.8630   -7.6980 P   0  0  0  0  0  0  0  0  0  0  0  0
   -0.5440   19.2180   -6.3110 O   0  0  0  0  0  0  0  0  0  0  0  0
    0.9850   20.7910   -7.6040 O   0  0  0  0  0  0  0  0  0  0  0  0
    0.0050   18.5960   -8.6590 O   0  0  0  0  0  0  0  0  0  0  0  0
   -1.5130   18.0500   -5.8790 P   0  0  2  0  0  0  0  0  0  0  0  0
   -0.4140   16.8880   -5.5970 O   0  0  0  0  0  0  0  0  0  0  0  0
   -2.6370   17.6720   -6.7710 O   0  0  0  0  0  0  0  0  0  0  0  0
   -1.8980   18.5820   -4.4360 O   0  0  0  0  0  0  0  0  0  0  0  0
   -0.7180   15.5970   -5.0480 C   0  0  0  0  0  0  0  0  0  0  0  0
    0.5840   14.7840   -5.1110 C   0  0  0  0  0  0  0  0  0  0  0  0
    0.7730   13.2310   -4.9720 C   0  0  1  0  0  0  0  0  0  0  0  0
    1.5710   12.8680   -3.6960 C   0  0  0  0  0  0  0  0  0  0  0  0
   -0.1760   12.1820   -5.4120 N   0  0  0  0  0  0  0  0  0  0  0  0
    0.8730   12.0370   -2.6420 C   0  0  0  0  0  0  0  0  0  0  0  0
    0.2130   11.2910   -6.3720 N   0  0  0  0  0  0  0  0  0  0  0  0
   -1.4650   11.8880   -5.0080 C   0  0  0  0  0  0  0  0  0  0  0  0
    0.4320   10.9100   -2.7820 O   0  0  0  0  0  0  0  0  0  0  0  0
    0.7480   12.6410   -1.4330 O   0  0  0  0  0  0  0  0  0  0  0  0
   -2.2400   12.6220   -3.9810 C   0  0  0  0  0  0  0  0  0  0  0  0
   -1.9030   10.8380   -5.6790 N   0  0  0  0  0  0  0  0  0  0  0  0
   -0.8630   10.5010   -6.4890 C   0  0  0  0  0  0  0  0  0  0  0  0
   -0.9320    9.3490   -7.4150 C   0  0  0  0  0  0  0  0  0  0  0  0
  1  2  1  0
  2  3  1  0
  2  4  2  0
  2  5  1  0
  3  6  1  0
  6  7  1  0
  6  8  2  0
  6  9  1  1
  7 10  1  0
 10 11  1  0
 12 11  1  1
 12 13  1  0
 12 14  1  0
 13 15  1  0
 14 16  1  0
 14 17  1  0
 15 18  2  0
 15 19  1  0
 17 20  1  0
 17 21  2  0
 16 22  2  0
 21 22  1  0
 22 23  1  0
M  END
>  <comRMSD>  (61) 
0.379962

>  <∆∆G>  (61) 
-18.822343

>  <N_constrained_atoms>  (61) 
21.0

>  <LE>  (61) 
-0.818363

>  <ref_pdb>  (61) 
x0104_0

>  <ref_mols>  (61) 
x0628_0_A_α

>  <%Rank>  (61) 
1.029513

>  <generation_date>  (61) 
nan

>  <method>  (61) 
nan

>  <submitter_email>  (61) 
nan

>  <original SMILES>  (61) 
Cc1nc(C)n(C(CCOP(=O)(O)OP(=O)(O)O)CC(=O)O)n1

>  <ref_url>  (61) 
nan

>  <submitter_name>  (61) 
nan

>  <submitter_institution>  (61) 
nan

$$$$
x0805_0_A_α-x1015_0_A_α
     RDKit          3D

 23 25  0  0  0  0  0  0  0  0999 V2000
   -3.0120   15.1390    0.0900 O   0  0  0  0  0  0  0  0  0  0  0  0
   -4.2290   15.5820    0.6770 C   0  0  0  0  0  0  0  0  0  0  0  0
   -3.0540   14.6850   -1.1990 C   0  0  0  0  0  0  0  0  0  0  0  0
   -4.2530   14.1010   -1.5970 C   0  0  0  0  0  0  0  0  0  0  0  0
   -2.0060   14.7700   -2.1100 C   0  0  0  0  0  0  0  0  0  0  0  0
   -2.1420   14.2830   -3.4150 C   0  0  0  0  0  0  0  0  0  0  0  0
   -4.4010   13.6100   -2.8930 C   0  0  0  0  0  0  0  0  0  0  0  0
   -1.0050   14.3880   -4.3970 C   0  0  0  0  0  0  0  0  0  0  0  0
   -3.3460   13.7030   -3.8000 C   0  0  0  0  0  0  0  0  0  0  0  0
    0.2500   13.5950   -4.0250 C   0  0  2  0  0  0  0  0  0  0  0  0
    0.1000   12.1470   -3.9790 N   0  0  0  0  0  0  0  0  0  0  0  0
    0.6360   13.8840   -2.5830 C   0  0  0  0  0  0  0  0  0  0  0  0
    0.8530   14.9870   -2.1070 O   0  0  0  0  0  0  0  0  0  0  0  0
    0.4010   11.6540   -2.7030 C   0  0  0  0  0  0  0  0  0  0  0  0
    0.7110   12.7150   -1.9080 N   0  0  0  0  0  0  0  0  0  0  0  0
   -0.3610   11.3780   -5.0770 C   0  0  0  0  0  0  0  0  0  0  0  0
    0.4020   10.4870   -2.3080 O   0  0  0  0  0  0  0  0  0  0  0  0
   -0.0350   11.7400   -6.3910 C   0  0  0  0  0  0  0  0  0  0  0  0
   -1.1490   10.2390   -4.8940 C   0  0  0  0  0  0  0  0  0  0  0  0
   -0.4860   10.9850   -7.4780 C   0  0  0  0  0  0  0  0  0  0  0  0
   -1.6060    9.4810   -5.9710 C   0  0  0  0  0  0  0  0  0  0  0  0
   -1.2720    9.8570   -7.2610 C   0  0  0  0  0  0  0  0  0  0  0  0
   -1.8330    8.9220   -8.5890 Cl  0  0  0  0  0  0  0  0  0  0  0  0
  1  2  1  0
  1  3  1  0
  3  4  2  0
  3  5  1  0
  5  6  2  0
  4  7  1  0
  6  8  1  0
  6  9  1  0
  7  9  2  0
 10  8  1  1
 10 11  1  0
 10 12  1  0
 12 13  2  0
 11 14  1  0
 12 15  1  0
 14 15  1  0
 11 16  1  0
 14 17  2  0
 16 18  2  0
 16 19  1  0
 18 20  1  0
 19 21  2  0
 20 22  2  0
 21 22  1  0
 22 23  1  0
M  END
>  <comRMSD>  (62) 
0.419

>  <∆∆G>  (62) 
-7.929242

>  <N_constrained_atoms>  (62) 
23.0

>  <LE>  (62) 
-0.34475

>  <ref_pdb>  (62) 
x0104_0

>  <ref_mols>  (62) 
x0805_0_A_α,x1015_0_A_α

>  <%Rank>  (62) 
1.046671

>  <generation_date>  (62) 
nan

>  <method>  (62) 
nan

>  <submitter_email>  (62) 
nan

>  <original SMILES>  (62) 
COc1cccc(CC2C(=O)NC(=O)N2c2ccc(Cl)cc2)c1

>  <ref_url>  (62) 
nan

>  <submitter_name>  (62) 
nan

>  <submitter_institution>  (62) 
nan

$$$$
5cb5_P_0_P_γ-x0290_0_A_α
     RDKit          3D

 20 21  0  0  0  0  0  0  0  0999 V2000
   -0.6080   12.4770   -3.2850 O   0  0  0  0  0  0  0  0  0  0  0  0
   -1.1620   13.6940   -3.7760 C   0  0  1  0  0  0  0  0  0  0  0  0
   -1.2080   14.8710   -2.7550 C   0  0  2  0  0  0  0  0  0  0  0  0
   -0.2770   14.2540   -4.9100 C   0  0  2  0  0  0  0  0  0  0  0  0
    1.0380   13.6810   -4.8340 O   0  0  0  0  0  0  0  0  0  0  0  0
   -0.1730   15.7870   -3.1810 O   0  0  0  0  0  0  0  0  0  0  0  0
   -0.2540   15.7540   -4.6070 C   0  0  1  0  0  0  0  0  0  0  0  0
   -1.3290   14.7390   -1.2150 C   0  0  0  0  0  0  0  0  0  0  0  0
    0.8620   16.5810   -5.2240 C   0  0  0  0  0  0  0  0  0  0  0  0
   -0.2440   14.6400   -0.3250 C   0  0  0  0  0  0  0  0  0  0  0  0
   -2.6140   14.7260   -0.6330 C   0  0  0  0  0  0  0  0  0  0  0  0
   -0.5030   14.5480    1.0460 C   0  0  0  0  0  0  0  0  0  0  0  0
   -2.7940   14.6280    0.7420 C   0  0  0  0  0  0  0  0  0  0  0  0
   -4.0470   14.6170    1.3540 N   0  0  0  0  0  0  0  0  0  0  0  0
   -1.7400   14.5420    1.5970 N   0  0  0  0  0  0  0  0  0  0  0  0
   -5.3090   14.4350    0.8810 C   0  0  0  0  0  0  0  0  0  0  0  0
   -5.4750   14.5190   -0.3430 O   0  0  0  0  0  0  0  0  0  0  0  0
   -6.5120   14.1230    1.7700 C   0  0  0  0  0  0  0  0  0  0  0  0
   -7.7340   13.8170    1.0030 N   0  0  0  0  0  0  0  0  0  0  0  0
   -8.5480   14.9980    0.7370 C   0  0  0  0  0  0  0  0  0  0  0  0
  2  1  1  1
  2  3  1  0
  2  4  1  0
  4  5  1  1
  3  6  1  0
  4  7  1  0
  6  7  1  0
  3  8  1  1
  7  9  1  6
  8 10  2  0
  8 11  1  0
 10 12  1  0
 11 13  2  0
 13 14  1  0
 12 15  2  0
 13 15  1  0
 14 16  1  0
 16 17  2  0
 16 18  1  0
 18 19  1  0
 19 20  1  0
M  END
>  <comRMSD>  (63) 
0.383612

>  <∆∆G>  (63) 
-7.52344

>  <N_constrained_atoms>  (63) 
20.0

>  <LE>  (63) 
-0.376172

>  <ref_pdb>  (63) 
x0104_0

>  <ref_mols>  (63) 
x0290_0_A_α

>  <%Rank>  (63) 
1.06383

>  <generation_date>  (63) 
nan

>  <method>  (63) 
nan

>  <submitter_email>  (63) 
nan

>  <original SMILES>  (63) 
CNCC(=O)Nc1cc(C2OC(C)C(O)C2O)ccn1

>  <ref_url>  (63) 
nan

>  <submitter_name>  (63) 
nan

>  <submitter_institution>  (63) 
nan

$$$$
x0852_0_B_α-x0290_0_A_α
     RDKit          3D

 24 25  0  0  0  0  0  0  0  0999 V2000
   -9.7330   17.9030    7.1740 N   0  0  0  0  0  0  0  0  0  0  0  0
   -9.4770   17.3490    6.1860 C   0  0  0  0  0  0  0  0  0  0  0  0
   -9.2010   16.5920    5.0050 C   0  0  0  0  0  0  0  0  0  0  0  0
   -8.2830   15.5320    5.0360 C   0  0  0  0  0  0  0  0  0  0  0  0
   -9.8680   16.9170    3.8010 C   0  0  0  0  0  0  0  0  0  0  0  0
   -7.5750   15.1330    6.1430 O   0  0  0  0  0  0  0  0  0  0  0  0
   -8.0420   14.8010    3.8910 C   0  0  0  0  0  0  0  0  0  0  0  0
   -9.6110   16.1700    2.6440 C   0  0  0  0  0  0  0  0  0  0  0  0
  -10.1300   16.3010    1.3820 O   0  0  0  0  0  0  0  0  0  0  0  0
   -8.7060   15.1240    2.7160 C   0  0  0  0  0  0  0  0  0  0  0  0
   -9.9990   15.1470    0.5180 C   0  0  0  0  0  0  0  0  0  0  0  0
   -8.5420   14.8880    0.0340 C   0  0  0  0  0  0  0  0  0  0  0  0
   -7.8310   13.8200    0.7970 N   0  0  0  0  0  0  0  0  0  0  0  0
   -6.6390   14.2540    1.5870 C   0  0  0  0  0  0  0  0  0  0  0  0
   -5.3580   14.4290    0.7710 C   0  0  0  0  0  0  0  0  0  0  0  0
   -5.4170   14.3580   -0.4640 O   0  0  0  0  0  0  0  0  0  0  0  0
   -4.1350   14.6510    1.3270 N   0  0  0  0  0  0  0  0  0  0  0  0
   -2.8500   14.6280    0.8000 C   0  0  0  0  0  0  0  0  0  0  0  0
   -1.8420   14.5730    1.7130 N   0  0  0  0  0  0  0  0  0  0  0  0
   -2.5900   14.6540   -0.5570 C   0  0  0  0  0  0  0  0  0  0  0  0
   -0.5710   14.5410    1.2510 C   0  0  0  0  0  0  0  0  0  0  0  0
   -1.2710   14.6210   -1.0140 C   0  0  0  0  0  0  0  0  0  0  0  0
   -0.9910   14.6430   -2.4880 C   0  0  0  0  0  0  0  0  0  0  0  0
   -0.2360   14.5640   -0.0890 C   0  0  0  0  0  0  0  0  0  0  0  0
  1  2  3  0
  2  3  1  0
  3  4  2  0
  3  5  1  0
  4  6  1  0
  4  7  1  0
  5  8  2  0
  8  9  1  0
  7 10  2  0
  8 10  1  0
  9 11  1  0
 11 12  1  0
 12 13  1  0
 13 14  1  0
 14 15  1  0
 15 16  2  0
 15 17  1  0
 17 18  1  0
 18 19  2  0
 18 20  1  0
 19 21  1  0
 20 22  2  0
 22 23  1  0
 21 24  2  0
 22 24  1  0
M  END
>  <comRMSD>  (64) 
0.338516

>  <∆∆G>  (64) 
-9.486127

>  <N_constrained_atoms>  (64) 
23.0

>  <LE>  (64) 
-0.395255

>  <ref_pdb>  (64) 
x0104_0

>  <ref_mols>  (64) 
x0852_0_B_α,x0290_0_A_α

>  <%Rank>  (64) 
1.080988

>  <generation_date>  (64) 
nan

>  <method>  (64) 
nan

>  <submitter_email>  (64) 
nan

>  <original SMILES>  (64) 
Cc1ccnc(NC(=O)CNCCOc2ccc(O)c(C#N)c2)c1

>  <ref_url>  (64) 
nan

>  <submitter_name>  (64) 
nan

>  <submitter_institution>  (64) 
nan

$$$$
5l9k_B_0_B_γ-EU0844_0_A_α
     RDKit          3D

 24 26  0  0  0  0  0  0  0  0999 V2000
   -2.1210   12.2920   -3.8190 O   0  0  0  0  0  0  0  0  0  0  0  0
   -2.1380   13.7010   -4.0210 C   0  0  1  0  0  0  0  0  0  0  0  0
   -1.9880   14.5120   -2.7170 C   0  0  2  0  0  0  0  0  0  0  0  0
   -0.9450   14.1510   -4.8520 C   0  0  2  0  0  0  0  0  0  0  0  0
    0.2310   13.4430   -4.4820 O   0  0  0  0  0  0  0  0  0  0  0  0
   -3.3040   15.0390   -2.4230 O   0  0  0  0  0  0  0  0  0  0  0  0
   -0.9880   15.5230   -3.0380 O   0  0  0  0  0  0  0  0  0  0  0  0
   -0.9570   15.6140   -4.4670 C   0  0  1  0  0  0  0  0  0  0  0  0
    0.2080   16.4470   -4.9750 C   0  0  0  0  0  0  0  0  0  0  0  0
   -3.9130   15.0090   -1.1740 C   0  0  0  0  0  0  0  0  0  0  0  0
   -5.3130   14.8600   -1.2230 C   0  0  0  0  0  0  0  0  0  0  0  0
   -3.3030   15.1180    0.0790 C   0  0  0  0  0  0  0  0  0  0  0  0
   -6.1130   14.8370   -0.0810 C   0  0  0  0  0  0  0  0  0  0  0  0
   -4.0820   15.0980    1.2410 C   0  0  0  0  0  0  0  0  0  0  0  0
   -7.4590   14.7040   -0.1860 N   0  0  0  0  0  0  0  0  0  0  0  0
   -5.4800   14.9680    1.1660 C   0  0  0  0  0  0  0  0  0  0  0  0
   -6.2910   14.9820    2.3120 C   0  0  0  0  0  0  0  0  0  0  0  0
   -8.2310   14.7270    0.9430 C   0  0  0  0  0  0  0  0  0  0  0  0
   -9.7100   14.5970    0.7240 C   0  0  0  0  0  0  0  0  0  0  0  0
   -7.6800   14.8740    2.2090 C   0  0  0  0  0  0  0  0  0  0  0  0
   -8.4870   14.9450    3.4530 C   0  0  0  0  0  0  0  0  0  0  0  0
   -9.5650   15.5360    3.4240 O   0  0  0  0  0  0  0  0  0  0  0  0
   -7.9690   14.3640    4.5820 N   0  0  0  0  0  0  0  0  0  0  0  0
   -8.3740   14.8400    5.8830 C   0  0  0  0  0  0  0  0  0  0  0  0
  2  1  1  1
  2  3  1  0
  2  4  1  0
  4  5  1  1
  3  6  1  6
  3  7  1  0
  4  8  1  0
  7  8  1  0
  8  9  1  1
  6 10  1  0
 10 11  2  0
 10 12  1  0
 11 13  1  0
 12 14  2  0
 13 15  2  0
 13 16  1  0
 14 16  1  0
 16 17  2  0
 15 18  1  0
 18 19  1  0
 17 20  1  0
 18 20  2  0
 20 21  1  0
 21 22  2  0
 21 23  1  0
 23 24  1  0
M  END
>  <comRMSD>  (65) 
0.393656

>  <∆∆G>  (65) 
-6.115543

>  <N_constrained_atoms>  (65) 
24.0

>  <LE>  (65) 
-0.254814

>  <ref_pdb>  (65) 
x0104_0

>  <ref_mols>  (65) 


>  <%Rank>  (65) 
1.098147

>  <generation_date>  (65) 
nan

>  <method>  (65) 
nan

>  <submitter_email>  (65) 
nan

>  <original SMILES>  (65) 
CNC(=O)c1cc2ccc(OC3OC(C)C(O)C3O)cc2nc1C

>  <ref_url>  (65) 
nan

>  <submitter_name>  (65) 
nan

>  <submitter_institution>  (65) 
nan

$$$$
x0724_0_A_α-x0628_0_A_α
     RDKit          3D

 28 30  0  0  0  0  0  0  0  0999 V2000
   -8.4730   13.7490    4.3690 N   0  0  0  0  0  0  0  0  0  0  0  0
   -8.5190   13.9620    5.8140 C   0  0  0  0  0  0  0  0  0  0  0  0
   -8.3640   15.0130    3.6400 C   0  0  0  0  0  0  0  0  0  0  0  0
   -7.7360   14.8200    2.3070 C   0  0  0  0  0  0  0  0  0  0  0  0
   -6.4040   14.9170    1.9900 C   0  0  0  0  0  0  0  0  0  0  0  0
   -8.3370   14.5050    1.0700 C   0  0  0  0  0  0  0  0  0  0  0  0
   -7.4550   14.4170    0.0690 N   0  0  0  0  0  0  0  0  0  0  0  0
   -6.2540   14.6780    0.6480 N   0  0  0  0  0  0  0  0  0  0  0  0
   -5.0370   14.6920   -0.0870 C   0  0  0  0  0  0  0  0  0  0  0  0
   -3.8240   14.7810    0.6130 C   0  0  0  0  0  0  0  0  0  0  0  0
   -5.0190   14.6240   -1.4870 C   0  0  0  0  0  0  0  0  0  0  0  0
   -2.6180   14.8000   -0.0790 C   0  0  0  0  0  0  0  0  0  0  0  0
   -3.8020   14.6440   -2.1910 C   0  0  0  0  0  0  0  0  0  0  0  0
   -3.7970   14.5740   -3.7070 C   0  0  0  0  0  0  0  0  0  0  0  0
   -2.6040   14.7320   -1.4730 C   0  0  0  0  0  0  0  0  0  0  0  0
   -3.5070   13.1820   -4.3180 C   0  0  0  0  0  0  0  0  0  0  0  0
   -2.2140   12.4670   -3.8740 C   0  0  0  0  0  0  0  0  0  0  0  0
   -1.5080   11.6900   -4.9480 C   0  0  0  0  0  0  0  0  0  0  0  0
   -1.9050   10.5560   -5.5030 N   0  0  0  0  0  0  0  0  0  0  0  0
   -0.3090   12.0540   -5.5250 N   0  0  0  0  0  0  0  0  0  0  0  0
    0.5320   13.2040   -5.2700 C   0  0  0  0  0  0  0  0  0  0  0  0
   -0.9150   10.2670   -6.4090 C   0  0  0  0  0  0  0  0  0  0  0  0
    0.0760   11.1590   -6.4550 N   0  0  0  0  0  0  0  0  0  0  0  0
   -0.9350    9.0690   -7.2630 C   0  0  0  0  0  0  0  0  0  0  0  0
    1.6580   12.9050   -4.2920 C   0  0  0  0  0  0  0  0  0  0  0  0
    1.0960   12.2740   -3.0510 C   0  0  0  0  0  0  0  0  0  0  0  0
    0.6610   11.1370   -2.9460 O   0  0  0  0  0  0  0  0  0  0  0  0
    1.1110   13.0980   -1.9950 O   0  0  0  0  0  0  0  0  0  0  0  0
  1  2  1  0
  1  3  1  0
  3  4  1  0
  4  5  2  0
  4  6  1  0
  6  7  2  0
  5  8  1  0
  7  8  1  0
  8  9  1  0
  9 10  2  0
  9 11  1  0
 10 12  1  0
 11 13  2  0
 13 14  1  0
 12 15  2  0
 13 15  1  0
 14 16  1  0
 16 17  1  0
 17 18  1  0
 18 19  2  0
 18 20  1  0
 20 21  1  0
 19 22  1  0
 20 23  1  0
 22 23  2  0
 22 24  1  0
 21 25  1  0
 25 26  1  0
 26 27  2  0
 26 28  1  0
M  END
>  <comRMSD>  (66) 
0.187568

>  <∆∆G>  (66) 
-4.695655

>  <N_constrained_atoms>  (66) 
26.0

>  <LE>  (66) 
-0.167702

>  <ref_pdb>  (66) 
x0104_0

>  <ref_mols>  (66) 
x0724_0_A_α,x0628_0_A_α

>  <%Rank>  (66) 
1.115305

>  <generation_date>  (66) 
nan

>  <method>  (66) 
nan

>  <submitter_email>  (66) 
nan

>  <original SMILES>  (66) 
CNCc1cnn(-c2cccc(CCCc3nc(C)nn3CCC(=O)O)c2)c1

>  <ref_url>  (66) 
nan

>  <submitter_name>  (66) 
nan

>  <submitter_institution>  (66) 
nan

$$$$
x0371_0_A_β-x0438_0_A_α
     RDKit          3D

 14 15  0  0  0  0  0  0  0  0999 V2000
   -8.4770   14.0140    1.6670 C   0  0  0  0  0  0  0  0  0  0  0  0
   -9.2580   15.3430    2.5690 S   0  0  0  0  0  0  0  0  0  0  0  0
   -8.1740   15.6740    3.9480 C   0  0  0  0  0  0  0  0  0  0  0  0
   -7.2410   14.3800    0.9120 C   0  0  0  0  0  0  0  0  0  0  0  0
  -10.4870   14.7960    3.1220 O   0  0  0  0  0  0  0  0  0  0  0  0
   -9.3500   16.5010    1.7060 O   0  0  0  0  0  0  0  0  0  0  0  0
   -5.9790   14.3730    1.4720 N   0  0  0  0  0  0  0  0  0  0  0  0
   -7.1720   14.7280   -0.3620 N   0  0  0  0  0  0  0  0  0  0  0  0
   -5.0760   14.7090    0.5090 C   0  0  0  0  0  0  0  0  0  0  0  0
   -5.8360   14.9290   -0.6280 C   0  0  0  0  0  0  0  0  0  0  0  0
   -3.6920   14.8250    0.5530 C   0  0  0  0  0  0  0  0  0  0  0  0
   -5.1920   15.2930   -1.8160 C   0  0  0  0  0  0  0  0  0  0  0  0
   -3.0680   15.1760   -0.6390 C   0  0  0  0  0  0  0  0  0  0  0  0
   -3.7990   15.4110   -1.8070 C   0  0  0  0  0  0  0  0  0  0  0  0
  2  1  1  0
  2  3  1  0
  1  4  1  0
  2  5  2  0
  2  6  2  0
  4  7  1  0
  4  8  2  0
  7  9  1  0
  8 10  1  0
  9 10  2  0
  9 11  1  0
 10 12  1  0
 11 13  2  0
 12 14  2  0
 13 14  1  0
M  END
>  <comRMSD>  (67) 
0.23054

>  <∆∆G>  (67) 
-4.588505

>  <N_constrained_atoms>  (67) 
14.0

>  <LE>  (67) 
-0.32775

>  <ref_pdb>  (67) 
x0104_0

>  <ref_mols>  (67) 
x0371_0_A_β,x0438_0_A_α

>  <%Rank>  (67) 
1.132464

>  <generation_date>  (67) 
nan

>  <method>  (67) 
nan

>  <submitter_email>  (67) 
nan

>  <original SMILES>  (67) 
CS(=O)(=O)Cc1nc2ccccc2[nH]1

>  <ref_url>  (67) 
nan

>  <submitter_name>  (67) 
nan

>  <submitter_institution>  (67) 
nan

$$$$
x1015_0_A_α-x0128_0_A_α
     RDKit          3D

 34 37  0  0  0  0  0  0  0  0999 V2000
   -1.1400   14.3300   -4.4960 C   0  0  0  0  0  0  0  0  0  0  0  0
    0.1000   13.6510   -3.9200 C   0  0  2  0  0  0  0  0  0  0  0  0
    0.0330   12.1870   -3.9450 N   0  0  0  0  0  0  0  0  0  0  0  0
    0.0970   13.8410   -2.4140 C   0  0  0  0  0  0  0  0  0  0  0  0
   -0.2650   14.9180   -1.8260 N   0  0  0  0  0  0  0  0  0  0  0  0
    0.2660   11.6590   -2.6640 C   0  0  0  0  0  0  0  0  0  0  0  0
    0.5130   12.7010   -1.8300 N   0  0  0  0  0  0  0  0  0  0  0  0
   -0.4110   11.4250   -5.0550 C   0  0  0  0  0  0  0  0  0  0  0  0
    0.2660   10.4870   -2.2890 O   0  0  0  0  0  0  0  0  0  0  0  0
   -0.2870   14.9610   -0.3610 C   0  0  0  0  0  0  0  0  0  0  0  0
    0.1210   11.6320   -6.3400 C   0  0  0  0  0  0  0  0  0  0  0  0
   -1.3920   10.4340   -4.9070 C   0  0  0  0  0  0  0  0  0  0  0  0
   -1.6800   14.5220    0.1130 C   0  0  0  0  0  0  0  0  0  0  0  0
   -0.3140   10.8740   -7.4310 C   0  0  0  0  0  0  0  0  0  0  0  0
   -1.8290    9.6740   -5.9940 C   0  0  0  0  0  0  0  0  0  0  0  0
   -2.6500   15.7020    0.0260 C   0  0  0  0  0  0  0  0  0  0  0  0
   -1.2890    9.8950   -7.2530 C   0  0  0  0  0  0  0  0  0  0  0  0
   -1.8260    8.9580   -8.5890 Cl  0  0  0  0  0  0  0  0  0  0  0  0
   -4.1150   15.3490   -0.0260 C   0  0  0  0  0  0  0  0  0  0  0  0
   -4.8280   15.2680   -1.2300 C   0  0  0  0  0  0  0  0  0  0  0  0
   -4.7900   15.1030    1.1720 C   0  0  0  0  0  0  0  0  0  0  0  0
   -6.1860   14.9450   -1.2170 C   0  0  0  0  0  0  0  0  0  0  0  0
   -6.1510   14.7780    1.1970 C   0  0  0  0  0  0  0  0  0  0  0  0
   -6.7070   14.5560    2.4760 N   0  0  0  0  0  0  0  0  0  0  0  0
   -6.8490   14.6990   -0.0080 C   0  0  0  0  0  0  0  0  0  0  0  0
   -7.8010   15.1730    3.0640 C   0  0  0  0  0  0  0  0  0  0  0  0
   -8.8330   15.4720    2.4740 O   0  0  0  0  0  0  0  0  0  0  0  0
   -7.5750   15.4210    4.4200 N   0  0  0  0  0  0  0  0  0  0  0  0
   -8.4260   16.1650    5.2720 C   0  0  0  0  0  0  0  0  0  0  0  0
   -9.1440   17.2960    4.8900 C   0  0  0  0  0  0  0  0  0  0  0  0
   -8.5700   15.7490    6.6000 C   0  0  0  0  0  0  0  0  0  0  0  0
   -9.9610   18.0030    5.7130 N   0  0  0  0  0  0  0  0  0  0  0  0
   -9.4040   16.4620    7.4680 C   0  0  0  0  0  0  0  0  0  0  0  0
  -10.0700   17.5730    6.9790 C   0  0  0  0  0  0  0  0  0  0  0  0
  2  1  1  6
  2  3  1  0
  2  4  1  0
  4  5  2  3
  3  6  1  0
  4  7  1  0
  6  7  1  0
  3  8  1  0
  6  9  2  0
  5 10  1  0
  8 11  2  0
  8 12  1  0
 10 13  1  0
 11 14  1  0
 12 15  2  0
 13 16  1  0
 14 17  2  0
 15 17  1  0
 17 18  1  0
 16 19  1  0
 19 20  2  0
 19 21  1  0
 20 22  1  0
 21 23  2  0
 23 24  1  0
 22 25  2  0
 23 25  1  0
 24 26  1  0
 26 27  2  0
 26 28  1  0
 28 29  1  0
 29 30  2  0
 29 31  1  0
 30 32  1  0
 31 33  2  0
 32 34  2  0
 33 34  1  0
M  END
>  <comRMSD>  (68) 
0.287711

>  <∆∆G>  (68) 
-11.443863

>  <N_constrained_atoms>  (68) 
31.0

>  <LE>  (68) 
-0.336584

>  <ref_pdb>  (68) 
x0104_0

>  <ref_mols>  (68) 
x1015_0_A_α,x0128_0_A_α

>  <%Rank>  (68) 
1.149623

>  <generation_date>  (68) 
nan

>  <method>  (68) 
nan

>  <submitter_email>  (68) 
nan

>  <original SMILES>  (68) 
CC1C(=NCCCc2cccc(NC(=O)Nc3cccnc3)c2)NC(=O)N1c1ccc(Cl)cc1

>  <ref_url>  (68) 
nan

>  <submitter_name>  (68) 
nan

>  <submitter_institution>  (68) 
nan

$$$$
x1015_0_A_α-x0626_0_A_α
     RDKit          3D

 28 30  0  0  0  0  0  0  0  0999 V2000
   -1.2520   14.3780   -4.2490 C   0  0  0  0  0  0  0  0  0  0  0  0
    0.0130   13.5270   -4.1410 C   0  0  2  0  0  0  0  0  0  0  0  0
   -0.2510   12.0950   -4.0520 N   0  0  0  0  0  0  0  0  0  0  0  0
    0.6280   13.7150   -2.7820 C   0  0  0  0  0  0  0  0  0  0  0  0
    0.8950   14.8080   -2.2390 N   0  0  0  0  0  0  0  0  0  0  0  0
    0.2210   11.5500   -2.8490 C   0  0  0  0  0  0  0  0  0  0  0  0
    0.8660   12.5230   -2.1950 N   0  0  0  0  0  0  0  0  0  0  0  0
   -0.6120   11.3240   -5.1670 C   0  0  0  0  0  0  0  0  0  0  0  0
    0.1190   10.4070   -2.4020 O   0  0  0  0  0  0  0  0  0  0  0  0
    1.4400   14.5420   -0.9360 C   0  0  0  0  0  0  0  0  0  0  0  0
   -0.0210   11.5470   -6.4170 C   0  0  0  0  0  0  0  0  0  0  0  0
   -1.5660   10.3130   -5.0510 C   0  0  0  0  0  0  0  0  0  0  0  0
    0.3600   13.8610   -0.1140 C   0  0  0  0  0  0  0  0  0  0  0  0
   -0.3800   10.7770   -7.5230 C   0  0  0  0  0  0  0  0  0  0  0  0
   -1.9310    9.5380   -6.1530 C   0  0  0  0  0  0  0  0  0  0  0  0
   -0.2970   14.7140    0.9290 C   0  0  0  0  0  0  0  0  0  0  0  0
   -1.3360    9.7740   -7.3820 C   0  0  0  0  0  0  0  0  0  0  0  0
   -1.7820    8.8220   -8.7380 Cl  0  0  0  0  0  0  0  0  0  0  0  0
   -1.7100   14.7810    0.5720 C   0  0  0  0  0  0  0  0  0  0  0  0
   -2.6660   14.7720    1.5440 N   0  0  0  0  0  0  0  0  0  0  0  0
   -2.1560   14.8480   -0.7310 C   0  0  0  0  0  0  0  0  0  0  0  0
   -3.8360   14.8470    0.9460 C   0  0  0  0  0  0  0  0  0  0  0  0
   -3.8550   14.9240   -0.7590 S   0  0  0  0  0  0  0  0  0  0  0  0
   -5.0740   14.8700    1.4880 N   0  0  0  0  0  0  0  0  0  0  0  0
   -6.1930   14.6830    0.7110 C   0  0  0  0  0  0  0  0  0  0  0  0
   -6.2890   14.7760   -0.5060 O   0  0  0  0  0  0  0  0  0  0  0  0
   -7.3840   14.3360    1.5840 C   0  0  0  0  0  0  0  0  0  0  0  0
   -8.7000   14.6690    0.9030 C   0  0  0  0  0  0  0  0  0  0  0  0
  2  1  1  1
  2  3  1  0
  2  4  1  0
  4  5  2  3
  3  6  1  0
  4  7  1  0
  6  7  1  0
  3  8  1  0
  6  9  2  0
  5 10  1  0
  8 11  2  0
  8 12  1  0
 10 13  1  0
 11 14  1  0
 12 15  2  0
 13 16  1  0
 14 17  2  0
 15 17  1  0
 17 18  1  0
 16 19  1  0
 19 20  1  0
 19 21  2  0
 20 22  2  0
 21 23  1  0
 22 23  1  0
 22 24  1  0
 24 25  1  0
 25 26  2  0
 25 27  1  0
 27 28  1  0
M  END
>  <comRMSD>  (69) 
0.286639

>  <∆∆G>  (69) 
-9.825278

>  <N_constrained_atoms>  (69) 
26.0

>  <LE>  (69) 
-0.350903

>  <ref_pdb>  (69) 
x0104_0

>  <ref_mols>  (69) 
x1015_0_A_α,x0626_0_A_α

>  <%Rank>  (69) 
1.166781

>  <generation_date>  (69) 
nan

>  <method>  (69) 
nan

>  <submitter_email>  (69) 
nan

>  <original SMILES>  (69) 
CCC(=O)Nc1nc(CCCN=C2NC(=O)N(c3ccc(Cl)cc3)C2C)cs1

>  <ref_url>  (69) 
nan

>  <submitter_name>  (69) 
nan

>  <submitter_institution>  (69) 
nan

$$$$
x0950_0_A_α-x0290_0_A_α
     RDKit          3D

 20 20  0  0  0  0  0  0  0  0999 V2000
    2.7520   12.9930   -4.4480 C   0  0  0  0  0  0  0  0  0  0  0  0
    1.2650   12.7100   -4.5000 C   0  0  1  0  0  0  0  0  0  0  0  0
    0.9590   11.9020   -5.6240 O   0  0  0  0  0  0  0  0  0  0  0  0
    0.8230   12.1210   -3.1550 C   0  0  0  0  0  0  0  0  0  0  0  0
    0.4110   10.9830   -2.9760 O   0  0  0  0  0  0  0  0  0  0  0  0
    0.9670   13.0650   -2.1860 O   0  0  0  0  0  0  0  0  0  0  0  0
    0.4910   14.3810   -2.5410 C   0  0  0  0  0  0  0  0  0  0  0  0
   -1.0210   14.4980   -2.3330 C   0  0  0  0  0  0  0  0  0  0  0  0
   -1.3140   14.5210   -0.8620 C   0  0  0  0  0  0  0  0  0  0  0  0
   -0.2560   14.3920    0.0300 C   0  0  0  0  0  0  0  0  0  0  0  0
   -2.6140   14.6690   -0.3510 C   0  0  0  0  0  0  0  0  0  0  0  0
   -0.5310   14.4070    1.3720 C   0  0  0  0  0  0  0  0  0  0  0  0
   -2.7960   14.6770    1.0330 C   0  0  0  0  0  0  0  0  0  0  0  0
   -4.0880   14.8260    1.5280 N   0  0  0  0  0  0  0  0  0  0  0  0
   -1.7670   14.5440    1.8750 N   0  0  0  0  0  0  0  0  0  0  0  0
   -5.2770   14.4510    0.9770 C   0  0  0  0  0  0  0  0  0  0  0  0
   -5.3450   14.4170   -0.2610 O   0  0  0  0  0  0  0  0  0  0  0  0
   -6.5050   14.0760    1.8040 C   0  0  0  0  0  0  0  0  0  0  0  0
   -7.6350   13.7870    0.8990 N   0  0  0  0  0  0  0  0  0  0  0  0
   -8.5520   14.9110    0.8150 C   0  0  0  0  0  0  0  0  0  0  0  0
  2  1  1  1
  2  3  1  0
  2  4  1  0
  4  5  2  0
  4  6  1  0
  6  7  1  0
  7  8  1  0
  8  9  1  0
  9 10  2  0
  9 11  1  0
 10 12  1  0
 11 13  2  0
 13 14  1  0
 12 15  2  0
 13 15  1  0
 14 16  1  0
 16 17  2  0
 16 18  1  0
 18 19  1  0
 19 20  1  0
M  END
>  <comRMSD>  (70) 
0.274216

>  <∆∆G>  (70) 
-8.668983

>  <N_constrained_atoms>  (70) 
19.0

>  <LE>  (70) 
-0.433449

>  <ref_pdb>  (70) 
x0104_0

>  <ref_mols>  (70) 
x0950_0_A_α,x0290_0_A_α

>  <%Rank>  (70) 
1.18394

>  <generation_date>  (70) 
nan

>  <method>  (70) 
nan

>  <submitter_email>  (70) 
nan

>  <original SMILES>  (70) 
CNCC(=O)Nc1cc(CCOC(=O)[C@@H](C)O)ccn1

>  <ref_url>  (70) 
nan

>  <submitter_name>  (70) 
nan

>  <submitter_institution>  (70) 
nan

$$$$
x0727_0_A_α-6woj_A_0_A_β
     RDKit          3D

 24 24  0  0  0  0  0  0  0  0999 V2000
    0.1000   11.4960   -5.5900 N   0  0  0  0  0  0  0  0  0  0  0  0
    0.7460   12.4870   -4.7300 C   0  0  1  0  0  0  0  0  0  0  0  0
    0.0240   13.8410   -4.8200 C   0  0  0  0  0  0  0  0  0  0  0  0
    0.6730   11.1290   -6.7730 C   0  0  0  0  0  0  0  0  0  0  0  0
    1.6440   11.7070   -7.1920 O   0  0  0  0  0  0  0  0  0  0  0  0
    0.6890   11.9550   -3.2890 C   0  0  0  0  0  0  0  0  0  0  0  0
    0.0680    9.9490   -7.5210 C   0  0  0  0  0  0  0  0  0  0  0  0
    0.1230   10.9120   -2.9770 O   0  0  0  0  0  0  0  0  0  0  0  0
    1.3200   12.7320   -2.3830 O   0  0  0  0  0  0  0  0  0  0  0  0
    0.9660   15.0510   -4.9510 C   0  0  0  0  0  0  0  0  0  0  0  0
   -1.2040   10.3310   -8.2780 C   0  0  0  0  0  0  0  0  0  0  0  0
   -0.3080    8.7630   -6.6110 C   0  0  0  0  0  0  0  0  0  0  0  0
    0.3160   16.3880   -4.5890 C   0  0  0  0  0  0  0  0  0  0  0  0
   -2.1330    9.1350   -8.1210 C   0  0  0  0  0  0  0  0  0  0  0  0
   -1.8070    8.5810   -6.7450 C   0  0  0  0  0  0  0  0  0  0  0  0
   -0.8730   16.6110   -5.3530 O   0  0  0  0  0  0  0  0  0  0  0  0
   -1.3100   18.1210   -5.6790 P   0  0  2  0  0  0  0  0  0  0  0  0
    0.0090   18.7520   -6.2960 O   0  0  0  0  0  0  0  0  0  0  0  0
   -1.8140   18.9410   -4.5490 O   0  0  0  0  0  0  0  0  0  0  0  0
   -2.3490   17.9810   -6.8880 O   0  0  0  0  0  0  0  0  0  0  0  0
    0.0080   19.6970   -7.5720 P   0  0  0  0  0  0  0  0  0  0  0  0
   -1.4880   20.1910   -7.8020 O   0  0  0  0  0  0  0  0  0  0  0  0
    1.0580   20.7720   -7.5860 O   0  0  0  0  0  0  0  0  0  0  0  0
    0.1750   18.6100   -8.7280 O   0  0  0  0  0  0  0  0  0  0  0  0
  1  2  1  0
  2  3  1  1
  1  4  1  0
  4  5  2  0
  2  6  1  0
  4  7  1  0
  6  8  2  0
  6  9  1  0
  3 10  1  0
  7 11  1  0
  7 12  1  0
 10 13  1  0
 11 14  1  0
 12 15  1  0
 14 15  1  0
 13 16  1  0
 16 17  1  0
 17 18  1  0
 17 19  2  0
 17 20  1  6
 18 21  1  0
 21 22  1  0
 21 23  2  0
 21 24  1  0
M  END
>  <comRMSD>  (71) 
0.301652

>  <∆∆G>  (71) 
-13.644669

>  <N_constrained_atoms>  (71) 
22.0

>  <LE>  (71) 
-0.568528

>  <ref_pdb>  (71) 
x0104_0

>  <ref_mols>  (71) 
x0727_0_A_α

>  <%Rank>  (71) 
1.201098

>  <generation_date>  (71) 
nan

>  <method>  (71) 
nan

>  <submitter_email>  (71) 
nan

>  <original SMILES>  (71) 
O=C(N[C@@H](CCCOP(=O)(O)OP(=O)(O)O)C(=O)O)C1CCCC1

>  <ref_url>  (71) 
nan

>  <submitter_name>  (71) 
nan

>  <submitter_institution>  (71) 
nan

$$$$
x0685_0_A_α-x0852_0_B_α
     RDKit          3D

 21 22  0  0  0  0  0  0  0  0999 V2000
   -5.9800   14.9170    2.5740 N   0  0  0  0  0  0  0  0  0  0  0  0
   -7.1890   14.2220    3.0600 C   0  0  2  0  0  0  0  0  0  0  0  0
   -7.6620   13.0230    2.2490 C   0  0  0  0  0  0  0  0  0  0  0  0
   -5.4370   14.9390    1.2970 C   0  0  0  0  0  0  0  0  0  0  0  0
   -4.0520   15.1030    1.2090 C   0  0  0  0  0  0  0  0  0  0  0  0
   -6.1890   14.8220    0.1920 N   0  0  0  0  0  0  0  0  0  0  0  0
   -8.2590   15.2140    3.4000 C   0  0  0  0  0  0  0  0  0  0  0  0
   -3.4310   15.1480   -0.0260 C   0  0  0  0  0  0  0  0  0  0  0  0
   -5.5670   14.8760   -1.0090 C   0  0  0  0  0  0  0  0  0  0  0  0
   -8.4280   15.7190    4.7130 C   0  0  0  0  0  0  0  0  0  0  0  0
   -9.1030   15.6660    2.3960 C   0  0  0  0  0  0  0  0  0  0  0  0
   -7.6200   15.2880    5.7360 O   0  0  0  0  0  0  0  0  0  0  0  0
   -4.2040   15.0360   -1.1650 C   0  0  0  0  0  0  0  0  0  0  0  0
  -10.0840   16.5970    2.6540 C   0  0  0  0  0  0  0  0  0  0  0  0
   -9.4240   16.6660    4.9680 C   0  0  0  0  0  0  0  0  0  0  0  0
   -3.6210   15.0820   -2.4630 C   0  0  0  0  0  0  0  0  0  0  0  0
   -9.6100   17.2030    6.2810 C   0  0  0  0  0  0  0  0  0  0  0  0
  -11.1870   17.1680    1.2300 Br  0  0  0  0  0  0  0  0  0  0  0  0
  -10.2540   17.1060    3.9360 C   0  0  0  0  0  0  0  0  0  0  0  0
   -3.1430   15.1300   -3.5170 N   0  0  0  0  0  0  0  0  0  0  0  0
   -9.7450   17.6870    7.3280 N   0  0  0  0  0  0  0  0  0  0  0  0
  1  2  1  0
  2  3  1  6
  1  4  1  0
  4  5  2  0
  4  6  1  0
  2  7  1  0
  5  8  1  0
  6  9  2  0
  7 10  2  0
  7 11  1  0
 10 12  1  0
  8 13  2  0
  9 13  1  0
 11 14  2  0
 10 15  1  0
 13 16  1  0
 15 17  1  0
 14 18  1  0
 14 19  1  0
 15 19  2  0
 16 20  3  0
 17 21  3  0
M  END
>  <comRMSD>  (72) 
0.434432

>  <∆∆G>  (72) 
-8.639433

>  <N_constrained_atoms>  (72) 
21.0

>  <LE>  (72) 
-0.411402

>  <ref_pdb>  (72) 
x0104_0

>  <ref_mols>  (72) 
x0685_0_A_α,x0852_0_B_α

>  <%Rank>  (72) 
1.218257

>  <generation_date>  (72) 
nan

>  <method>  (72) 
nan

>  <submitter_email>  (72) 
nan

>  <original SMILES>  (72) 
CC(Nc1ccc(C#N)cn1)c1cc(Br)cc(C#N)c1O

>  <ref_url>  (72) 
nan

>  <submitter_name>  (72) 
nan

>  <submitter_institution>  (72) 
nan

$$$$
x0722_0_A_α-x0727_0_A_α
     RDKit          3D

 27 28  0  0  0  0  0  0  0  0999 V2000
   -4.4560   15.7730    2.2640 C   0  0  0  0  0  0  0  0  0  0  0  0
   -3.4630   15.2830    1.3330 C   0  0  0  0  0  0  0  0  0  0  0  0
   -2.3000   14.9330    1.8380 N   0  0  0  0  0  0  0  0  0  0  0  0
   -3.5270   15.1290   -0.0690 C   0  0  0  0  0  0  0  0  0  0  0  0
   -4.6930   15.4360   -0.9640 C   0  0  0  0  0  0  0  0  0  0  0  0
   -2.2590   14.6490   -0.3890 C   0  0  0  0  0  0  0  0  0  0  0  0
   -1.5760   14.5600    0.8080 N   0  0  0  0  0  0  0  0  0  0  0  0
   -0.2290   14.1430    1.1050 C   0  0  0  0  0  0  0  0  0  0  0  0
   -1.6670   14.2900   -1.7090 C   0  0  0  0  0  0  0  0  0  0  0  0
   -5.9590   14.6800   -0.5920 C   0  0  0  0  0  0  0  0  0  0  0  0
   -7.0910   15.1380   -0.7340 O   0  0  0  0  0  0  0  0  0  0  0  0
   -5.7800   13.4270   -0.0810 N   0  0  0  0  0  0  0  0  0  0  0  0
   -0.6830   13.1380   -1.5820 C   0  0  0  0  0  0  0  0  0  0  0  0
    0.7580   13.6260   -1.7560 C   0  0  0  0  0  0  0  0  0  0  0  0
    1.5190   12.6320   -2.4490 O   0  0  0  0  0  0  0  0  0  0  0  0
    0.8030   11.8180   -3.2720 C   0  0  0  0  0  0  0  0  0  0  0  0
    0.8560   12.2830   -4.7430 C   0  0  1  0  0  0  0  0  0  0  0  0
    0.1930   10.8230   -2.8840 O   0  0  0  0  0  0  0  0  0  0  0  0
    0.0770   11.4400   -5.6510 N   0  0  0  0  0  0  0  0  0  0  0  0
    0.4130   13.7350   -4.8820 C   0  0  0  0  0  0  0  0  0  0  0  0
    0.6820   11.0980   -6.8330 C   0  0  0  0  0  0  0  0  0  0  0  0
    1.6330   11.7150   -7.2300 O   0  0  0  0  0  0  0  0  0  0  0  0
    0.1050    9.8910   -7.5490 C   0  0  0  0  0  0  0  0  0  0  0  0
   -1.1680   10.2100   -8.3410 C   0  0  0  0  0  0  0  0  0  0  0  0
   -0.2470    8.7400   -6.5910 C   0  0  0  0  0  0  0  0  0  0  0  0
   -2.2930    9.4560   -7.6470 C   0  0  0  0  0  0  0  0  0  0  0  0
   -1.6290    8.2540   -6.9920 C   0  0  0  0  0  0  0  0  0  0  0  0
  1  2  1  0
  2  3  2  0
  2  4  1  0
  4  5  1  0
  4  6  2  0
  3  7  1  0
  6  7  1  0
  7  8  1  0
  6  9  1  0
  5 10  1  0
 10 11  2  0
 10 12  1  0
  9 13  1  0
 13 14  1  0
 14 15  1  0
 15 16  1  0
 16 17  1  0
 16 18  2  0
 17 19  1  0
 17 20  1  1
 19 21  1  0
 21 22  2  0
 21 23  1  0
 23 24  1  0
 23 25  1  0
 24 26  1  0
 25 27  1  0
 26 27  1  0
M  END
>  <comRMSD>  (73) 
0.261289

>  <∆∆G>  (73) 
-8.948544

>  <N_constrained_atoms>  (73) 
25.0

>  <LE>  (73) 
-0.331428

>  <ref_pdb>  (73) 
x0104_0

>  <ref_mols>  (73) 
x0722_0_A_α,x0727_0_A_α

>  <%Rank>  (73) 
1.235415

>  <generation_date>  (73) 
nan

>  <method>  (73) 
nan

>  <submitter_email>  (73) 
nan

>  <original SMILES>  (73) 
Cc1nn(C)c(CCCOC(=O)[C@H](C)NC(=O)C2CCCC2)c1CC(N)=O

>  <ref_url>  (73) 
nan

>  <submitter_name>  (73) 
nan

>  <submitter_institution>  (73) 
nan

$$$$
x0849_0_A_α-x0128_0_A_α
     RDKit          3D

 25 28  0  0  0  0  0  0  0  0999 V2000
   -3.0430   15.0140   -3.1380 Br  0  0  0  0  0  0  0  0  0  0  0  0
   -3.2970   14.8950   -1.2440 C   0  0  0  0  0  0  0  0  0  0  0  0
   -2.2030   14.7840   -0.3860 C   0  0  0  0  0  0  0  0  0  0  0  0
   -4.5980   14.9150   -0.7730 C   0  0  0  0  0  0  0  0  0  0  0  0
   -2.4790   14.7050    0.9770 C   0  0  0  0  0  0  0  0  0  0  0  0
   -4.7940   14.8320    0.6090 C   0  0  0  0  0  0  0  0  0  0  0  0
   -0.8570   14.7470   -0.8050 C   0  0  0  0  0  0  0  0  0  0  0  0
   -5.6880   15.0090   -1.6480 C   0  0  0  0  0  0  0  0  0  0  0  0
   -3.7320   14.7390    1.4530 N   0  0  0  0  0  0  0  0  0  0  0  0
   -1.5000   14.5900    1.8640 N   0  0  0  0  0  0  0  0  0  0  0  0
    0.1480   14.6310    0.1150 C   0  0  0  0  0  0  0  0  0  0  0  0
   -6.9810   15.0130   -1.1910 C   0  0  0  0  0  0  0  0  0  0  0  0
   -6.1580   14.8460    1.0680 C   0  0  0  0  0  0  0  0  0  0  0  0
   -6.4690   14.7840    2.4490 N   0  0  0  0  0  0  0  0  0  0  0  0
   -0.2250   14.5520    1.4330 C   0  0  0  0  0  0  0  0  0  0  0  0
   -7.2130   14.9290    0.1610 C   0  0  0  0  0  0  0  0  0  0  0  0
   -7.6550   15.1630    3.0770 C   0  0  0  0  0  0  0  0  0  0  0  0
   -8.7270   15.3010    2.4970 O   0  0  0  0  0  0  0  0  0  0  0  0
   -7.4710   15.3890    4.4400 N   0  0  0  0  0  0  0  0  0  0  0  0
   -8.3380   16.0750    5.3270 C   0  0  0  0  0  0  0  0  0  0  0  0
   -9.0330   17.2060    4.8790 C   0  0  0  0  0  0  0  0  0  0  0  0
   -8.5610   15.7050    6.6520 C   0  0  0  0  0  0  0  0  0  0  0  0
   -9.8850   17.9460    5.6280 N   0  0  0  0  0  0  0  0  0  0  0  0
   -9.4330   16.4480    7.4500 C   0  0  0  0  0  0  0  0  0  0  0  0
  -10.0660   17.5510    6.8990 C   0  0  0  0  0  0  0  0  0  0  0  0
  1  2  1  0
  2  3  2  0
  2  4  1  0
  3  5  1  0
  4  6  2  0
  3  7  1  0
  4  8  1  0
  5  9  2  0
  6  9  1  0
  5 10  1  0
  7 11  2  0
  8 12  2  0
  6 13  1  0
 13 14  1  0
 10 15  2  0
 11 15  1  0
 12 16  1  0
 13 16  2  0
 14 17  1  0
 17 18  2  0
 17 19  1  0
 19 20  1  0
 20 21  2  0
 20 22  1  0
 21 23  1  0
 22 24  2  0
 23 25  2  0
 24 25  1  0
M  END
>  <comRMSD>  (74) 
0.494704

>  <∆∆G>  (74) 
-9.937518

>  <N_constrained_atoms>  (74) 
25.0

>  <LE>  (74) 
-0.397501

>  <ref_pdb>  (74) 
x0104_0

>  <ref_mols>  (74) 
x0849_0_A_α,x0128_0_A_α

>  <%Rank>  (74) 
1.252574

>  <generation_date>  (74) 
nan

>  <method>  (74) 
nan

>  <submitter_email>  (74) 
nan

>  <original SMILES>  (74) 
O=C(Nc1cccnc1)Nc1cccc2c(Br)c3cccnc3nc12

>  <ref_url>  (74) 
nan

>  <submitter_name>  (74) 
nan

>  <submitter_institution>  (74) 
nan

$$$$
x0844_0_A_α-x1015_0_A_α
     RDKit          3D

 24 26  0  0  0  0  0  0  0  0999 V2000
   -7.5470   14.8310   -0.0480 O   0  0  0  0  0  0  0  0  0  0  0  0
   -6.3190   14.8810   -0.1130 C   0  0  0  0  0  0  0  0  0  0  0  0
   -5.5650   14.8320    1.0310 N   0  0  0  0  0  0  0  0  0  0  0  0
   -5.6020   14.9990   -1.4410 C   0  0  0  0  0  0  0  0  0  0  0  0
   -4.2090   14.9250    1.0820 C   0  0  0  0  0  0  0  0  0  0  0  0
   -4.0950   15.2590   -1.3770 C   0  0  2  0  0  0  0  0  0  0  0  0
   -3.3780   14.3630   -2.2560 O   0  0  0  0  0  0  0  0  0  0  0  0
   -3.4870   15.1190   -0.0140 C   0  0  0  0  0  0  0  0  0  0  0  0
   -2.2780   14.9710   -2.9410 C   0  0  0  0  0  0  0  0  0  0  0  0
   -1.7540   14.0130   -4.0110 C   0  0  0  0  0  0  0  0  0  0  0  0
   -0.2590   13.6620   -3.8910 C   0  0  2  0  0  0  0  0  0  0  0  0
   -0.0380   12.2160   -3.9470 N   0  0  0  0  0  0  0  0  0  0  0  0
    0.2930   13.9480   -2.4960 C   0  0  0  0  0  0  0  0  0  0  0  0
    0.4750   15.0490   -2.0030 O   0  0  0  0  0  0  0  0  0  0  0  0
    0.2750   11.7150   -2.6730 C   0  0  0  0  0  0  0  0  0  0  0  0
    0.5710   12.7750   -1.8740 N   0  0  0  0  0  0  0  0  0  0  0  0
   -0.4550   11.4230   -5.0450 C   0  0  0  0  0  0  0  0  0  0  0  0
    0.3000   10.5460   -2.2800 O   0  0  0  0  0  0  0  0  0  0  0  0
    0.0940   11.6190   -6.3240 C   0  0  0  0  0  0  0  0  0  0  0  0
   -1.4210   10.4190   -4.8960 C   0  0  0  0  0  0  0  0  0  0  0  0
   -0.3120   10.8360   -7.4110 C   0  0  0  0  0  0  0  0  0  0  0  0
   -1.8300    9.6330   -5.9790 C   0  0  0  0  0  0  0  0  0  0  0  0
   -1.2720    9.8460   -7.2330 C   0  0  0  0  0  0  0  0  0  0  0  0
   -1.7760    8.8830   -8.5630 Cl  0  0  0  0  0  0  0  0  0  0  0  0
  1  2  2  0
  2  3  1  0
  2  4  1  0
  3  5  1  0
  4  6  1  0
  6  7  1  6
  5  8  2  0
  6  8  1  0
  7  9  1  0
  9 10  1  0
 11 10  1  1
 11 12  1  0
 11 13  1  0
 13 14  2  0
 12 15  1  0
 13 16  1  0
 15 16  1  0
 12 17  1  0
 15 18  2  0
 17 19  2  0
 17 20  1  0
 19 21  1  0
 20 22  2  0
 21 23  2  0
 22 23  1  0
 23 24  1  0
M  END
>  <comRMSD>  (75) 
0.276147

>  <∆∆G>  (75) 
-5.754068

>  <N_constrained_atoms>  (75) 
23.0

>  <LE>  (75) 
-0.239753

>  <ref_pdb>  (75) 
x0104_0

>  <ref_mols>  (75) 
x0844_0_A_α,x1015_0_A_α

>  <%Rank>  (75) 
1.269732

>  <generation_date>  (75) 
nan

>  <method>  (75) 
nan

>  <submitter_email>  (75) 
nan

>  <original SMILES>  (75) 
O=C1CC(OCCC2C(=O)NC(=O)N2c2ccc(Cl)cc2)C=CN1

>  <ref_url>  (75) 
nan

>  <submitter_name>  (75) 
nan

>  <submitter_institution>  (75) 
nan

$$$$
EU0960_0_A_α-5DUS_0_A_γ
     RDKit          3D

 26 28  0  0  0  0  0  0  0  0999 V2000
   -2.1770   10.1770   -4.8850 C   0  0  0  0  0  0  0  0  0  0  0  0
   -1.0280   10.4710   -5.7920 C   0  0  0  0  0  0  0  0  0  0  0  0
   -0.7720    9.6240   -6.8970 N   0  0  0  0  0  0  0  0  0  0  0  0
   -0.1250   11.4820   -5.7200 C   0  0  0  0  0  0  0  0  0  0  0  0
   -1.8960    9.0240   -7.6410 C   0  0  0  0  0  0  0  0  0  0  0  0
   -0.0860   12.5130   -4.7080 N   0  0  0  0  0  0  0  0  0  0  0  0
    0.7860   11.2890   -6.8740 C   0  0  0  0  0  0  0  0  0  0  0  0
    0.1770   10.3280   -7.7070 N   0  0  0  0  0  0  0  0  0  0  0  0
    1.8330   11.8760   -6.9710 O   0  0  0  0  0  0  0  0  0  0  0  0
    0.8440   12.1380   -3.3010 S   0  0  0  0  0  0  0  0  0  0  0  0
    0.8640    9.6490   -8.7510 C   0  0  0  0  0  0  0  0  0  0  0  0
   -0.3230   14.0080   -4.9710 C   0  0  2  0  0  0  0  0  0  0  0  0
    0.7460   10.7150   -3.0640 O   0  0  0  0  0  0  0  0  0  0  0  0
    0.5540   13.0610   -2.2360 O   0  0  0  0  0  0  0  0  0  0  0  0
    2.4760   12.6170   -3.8660 C   0  0  0  0  0  0  0  0  0  0  0  0
    1.2890   10.3330   -9.8960 C   0  0  0  0  0  0  0  0  0  0  0  0
    1.1420    8.2770   -8.6660 C   0  0  0  0  0  0  0  0  0  0  0  0
    0.6190   15.0580   -4.3300 C   0  0  1  0  0  0  0  0  0  0  0  0
   -1.6270   14.3960   -4.3030 C   0  0  1  0  0  0  0  0  0  0  0  0
   -2.6480   13.4250   -4.4300 O   0  0  0  0  0  0  0  0  0  0  0  0
    0.5910   16.4290   -5.0220 C   0  0  0  0  0  0  0  0  0  0  0  0
    1.9730    9.6670  -10.9210 C   0  0  0  0  0  0  0  0  0  0  0  0
    1.8270    7.6110   -9.6890 C   0  0  0  0  0  0  0  0  0  0  0  0
   -1.1710   14.6450   -2.8820 C   0  0  0  0  0  0  0  0  0  0  0  0
    0.1230   15.2640   -2.9780 O   0  0  0  0  0  0  0  0  0  0  0  0
    2.2440    8.3080  -10.8170 C   0  0  0  0  0  0  0  0  0  0  0  0
  1  2  1  0
  2  3  1  0
  2  4  2  0
  3  5  1  0
  4  6  1  0
  4  7  1  0
  3  8  1  0
  7  8  1  0
  7  9  2  0
 10  6  1  0
  8 11  1  0
 12  6  1  1
 10 13  2  0
 10 14  2  0
 10 15  1  0
 11 16  2  0
 11 17  1  0
 12 18  1  0
 12 19  1  0
 19 20  1  1
 18 21  1  6
 16 22  1  0
 17 23  2  0
 19 24  1  0
 18 25  1  0
 24 25  1  0
 22 26  2  0
 23 26  1  0
M  END
>  <comRMSD>  (76) 
0.44895

>  <∆∆G>  (76) 
-7.10794

>  <N_constrained_atoms>  (76) 
26.0

>  <LE>  (76) 
-0.273382

>  <ref_pdb>  (76) 
x0104_0

>  <ref_mols>  (76) 


>  <%Rank>  (76) 
1.286891

>  <generation_date>  (76) 
nan

>  <method>  (76) 
nan

>  <submitter_email>  (76) 
nan

>  <original SMILES>  (76) 
Cc1c(N(C2C(O)COC2C)S(C)(=O)=O)c(=O)n(-c2ccccc2)n1C

>  <ref_url>  (76) 
nan

>  <submitter_name>  (76) 
nan

>  <submitter_institution>  (76) 
nan

$$$$
x0727_0_A_α-x0159_0_B_β
     RDKit          3D

 24 26  0  0  0  0  0  0  0  0999 V2000
    0.1140   11.4360   -5.6570 N   0  0  0  0  0  0  0  0  0  0  0  0
    0.8250   12.3180   -4.7290 C   0  0  1  0  0  0  0  0  0  0  0  0
    0.4400   13.7660   -4.9950 C   0  0  0  0  0  0  0  0  0  0  0  0
    0.7660   11.0760   -6.7980 C   0  0  0  0  0  0  0  0  0  0  0  0
    1.6760   11.7870   -7.1560 O   0  0  0  0  0  0  0  0  0  0  0  0
    0.6670   11.9150   -3.2510 C   0  0  0  0  0  0  0  0  0  0  0  0
    0.3690    9.7890   -7.5210 C   0  0  2  0  0  0  0  0  0  0  0  0
    0.0500   10.9270   -2.8780 O   0  0  0  0  0  0  0  0  0  0  0  0
    1.2730   12.7520   -2.3730 O   0  0  0  0  0  0  0  0  0  0  0  0
   -0.6780   10.0060   -8.6270 C   0  0  1  0  0  0  0  0  0  0  0  0
   -0.2180    8.7060   -6.6000 C   0  0  0  0  0  0  0  0  0  0  0  0
   -0.1040    9.6930  -10.0280 C   0  0  0  0  0  0  0  0  0  0  0  0
   -1.8880    9.1300   -8.2510 C   0  0  0  0  0  0  0  0  0  0  0  0
   -1.7170    8.8070   -6.7740 C   0  0  0  0  0  0  0  0  0  0  0  0
    1.2640    9.1560  -10.0150 N   0  0  0  0  0  0  0  0  0  0  0  0
    2.0680    9.3790  -11.0880 C   0  0  0  0  0  0  0  0  0  0  0  0
    1.9160   10.5340  -11.8050 N   0  0  0  0  0  0  0  0  0  0  0  0
    3.0360    8.6330  -11.5960 N   0  0  0  0  0  0  0  0  0  0  0  0
    2.8290   10.5510  -12.8240 C   0  0  0  0  0  0  0  0  0  0  0  0
    3.5220    9.3540  -12.6790 C   0  0  0  0  0  0  0  0  0  0  0  0
    3.0940   11.4900  -13.8230 C   0  0  0  0  0  0  0  0  0  0  0  0
    4.5520    9.0650  -13.5890 C   0  0  0  0  0  0  0  0  0  0  0  0
    4.1220   11.1850  -14.7150 C   0  0  0  0  0  0  0  0  0  0  0  0
    4.8420    9.9940  -14.6050 C   0  0  0  0  0  0  0  0  0  0  0  0
  1  2  1  0
  2  3  1  1
  1  4  1  0
  4  5  2  0
  2  6  1  0
  7  4  1  1
  6  8  2  0
  6  9  1  0
  7 10  1  0
  7 11  1  0
 10 12  1  6
 10 13  1  0
 11 14  1  0
 13 14  1  0
 12 15  1  0
 15 16  1  0
 16 17  1  0
 16 18  2  0
 17 19  1  0
 18 20  1  0
 19 20  2  0
 19 21  1  0
 20 22  1  0
 21 23  2  0
 22 24  2  0
 23 24  1  0
M  END
>  <comRMSD>  (77) 
0.302049

>  <∆∆G>  (77) 
-6.841552

>  <N_constrained_atoms>  (77) 
23.0

>  <LE>  (77) 
-0.285065

>  <ref_pdb>  (77) 
x0104_0

>  <ref_mols>  (77) 
x0727_0_A_α,x0159_0_B_β

>  <%Rank>  (77) 
1.304049

>  <generation_date>  (77) 
nan

>  <method>  (77) 
nan

>  <submitter_email>  (77) 
nan

>  <original SMILES>  (77) 
C[C@H](NC(=O)C1CCCC1CNc1nc2ccccc2[nH]1)C(=O)O

>  <ref_url>  (77) 
nan

>  <submitter_name>  (77) 
nan

>  <submitter_institution>  (77) 
nan

$$$$
x1012_0_A_α-x0253_0_A_α
     RDKit          3D

 23 24  0  0  0  0  0  0  0  0999 V2000
   -0.2760   18.3070   -4.7810 N   0  0  0  0  0  0  0  0  0  0  0  0
   -1.2690   17.4000   -4.8200 C   0  0  0  0  0  0  0  0  0  0  0  0
   -2.4120   17.8000   -4.8920 O   0  0  0  0  0  0  0  0  0  0  0  0
   -0.9100   16.0880   -4.7590 N   0  0  0  0  0  0  0  0  0  0  0  0
   -1.8840   15.0120   -4.4470 C   0  0  0  0  0  0  0  0  0  0  0  0
    0.5360   15.7970   -4.7670 C   0  0  0  0  0  0  0  0  0  0  0  0
   -1.4160   14.0600   -3.3510 C   0  0  0  0  0  0  0  0  0  0  0  0
    0.9150   14.9420   -3.5790 C   0  0  0  0  0  0  0  0  0  0  0  0
    0.0390   13.6950   -3.6390 C   0  0  0  0  0  0  0  0  0  0  0  0
    0.6430   12.4540   -2.9700 C   0  0  0  0  0  0  0  0  0  0  0  0
   -0.3370   11.5330   -2.5110 O   0  0  0  0  0  0  0  0  0  0  0  0
    1.4210   12.8690   -1.8600 O   0  0  0  0  0  0  0  0  0  0  0  0
    1.4480   11.8220   -4.1180 C   0  0  0  0  0  0  0  0  0  0  0  0
    0.5910   11.6350   -5.3090 N   0  0  0  0  0  0  0  0  0  0  0  0
    1.1340   11.6280   -6.5630 C   0  0  0  0  0  0  0  0  0  0  0  0
    2.1610   12.2340   -6.7400 O   0  0  0  0  0  0  0  0  0  0  0  0
    0.4700   10.8230   -7.6490 C   0  0  0  0  0  0  0  0  0  0  0  0
   -0.6530   10.0700   -7.2990 C   0  0  0  0  0  0  0  0  0  0  0  0
    0.9060   10.7670   -8.9810 C   0  0  0  0  0  0  0  0  0  0  0  0
   -1.3150    9.2630   -8.2270 C   0  0  0  0  0  0  0  0  0  0  0  0
    0.2510    9.9750   -9.9160 C   0  0  0  0  0  0  0  0  0  0  0  0
   -2.5020    8.4530   -7.8050 C   0  0  0  0  0  0  0  0  0  0  0  0
   -0.8560    9.2190   -9.5430 C   0  0  0  0  0  0  0  0  0  0  0  0
  1  2  1  0
  2  3  2  0
  2  4  1  0
  4  5  1  0
  4  6  1  0
  5  7  1  0
  6  8  1  0
  7  9  1  0
  8  9  1  0
  9 10  1  0
 10 11  1  0
 10 12  1  0
 10 13  1  0
 13 14  1  0
 14 15  1  0
 15 16  2  0
 15 17  1  0
 17 18  2  0
 17 19  1  0
 18 20  1  0
 19 21  2  0
 20 22  1  0
 20 23  2  0
 21 23  1  0
M  END
>  <comRMSD>  (78) 
0.427838

>  <∆∆G>  (78) 
-7.342334

>  <N_constrained_atoms>  (78) 
23.0

>  <LE>  (78) 
-0.319232

>  <ref_pdb>  (78) 
x0104_0

>  <ref_mols>  (78) 
x1012_0_A_α,x0253_0_A_α

>  <%Rank>  (78) 
1.321208

>  <generation_date>  (78) 
nan

>  <method>  (78) 
nan

>  <submitter_email>  (78) 
nan

>  <original SMILES>  (78) 
Cc1cccc(C(=O)NCC(O)(O)C2CCN(C(N)=O)CC2)c1

>  <ref_url>  (78) 
nan

>  <submitter_name>  (78) 
nan

>  <submitter_institution>  (78) 
nan

$$$$
x0091_0_B_α-x0729_0_A_α
     RDKit          3D

 30 32  0  0  0  0  0  0  0  0999 V2000
   12.7890   21.0850   13.6100 N   0  0  0  0  0  0  0  0  0  0  0  0
   12.1860   21.9270   14.6420 C   0  0  0  0  0  0  0  0  0  0  0  0
   12.2890   19.7010   13.5130 C   0  0  0  0  0  0  0  0  0  0  0  0
   13.7930   21.4770   12.7350 C   0  0  0  0  0  0  0  0  0  0  0  0
   13.9750   20.9130   11.6600 O   0  0  0  0  0  0  0  0  0  0  0  0
   14.5850   22.5320   13.1440 N   0  0  0  0  0  0  0  0  0  0  0  0
   13.1940   18.7430   14.2360 C   0  0  0  0  0  0  0  0  0  0  0  0
   12.6890   17.7460   14.9870 N   0  0  0  0  0  0  0  0  0  0  0  0
   14.6140   18.7120   14.2540 C   0  0  0  0  0  0  0  0  0  0  0  0
   15.1800   23.5000   12.2530 C   0  0  2  0  0  0  0  0  0  0  0  0
   13.7790   17.0600   15.5010 O   0  0  0  0  0  0  0  0  0  0  0  0
   14.9240   17.6410   15.0580 C   0  0  0  0  0  0  0  0  0  0  0  0
   16.6790   23.5630   11.9920 C   0  0  2  0  0  0  0  0  0  0  0  0
   16.0290   24.5780   12.8850 C   0  0  0  0  0  0  0  0  0  0  0  0
   16.1860   17.0260   15.5160 C   0  0  0  0  0  0  0  0  0  0  0  0
   17.2530   24.0330   10.6610 C   0  0  0  0  0  0  0  0  0  0  0  0
   18.0540   25.3520   10.8110 C   0  0  0  0  0  0  0  0  0  0  0  0
   19.1590   25.6340    9.7680 C   0  0  0  0  0  0  0  0  0  0  0  0
   19.0030   27.1560    8.8090 S   0  0  0  0  0  0  0  0  0  0  0  0
   17.7250   27.1010    8.1440 O   0  0  0  0  0  0  0  0  0  0  0  0
   19.3160   28.2550    9.6990 O   0  0  0  0  0  0  0  0  0  0  0  0
   20.1970   27.1620    7.6010 N   0  0  0  0  0  0  0  0  0  0  0  0
   21.6260   27.3950    7.9360 C   0  0  0  0  0  0  0  0  0  0  0  0
   19.7760   27.0920    6.1640 C   0  0  2  0  0  0  0  0  0  0  0  0
   19.9540   25.6500    5.6790 C   0  0  0  0  0  0  0  0  0  0  0  0
   22.2370   28.4740    7.0410 C   0  0  0  0  0  0  0  0  0  0  0  0
   20.4750   28.1260    5.2660 C   0  0  2  0  0  0  0  0  0  0  0  0
   20.2030   27.8720    3.8400 C   0  0  0  0  0  0  0  0  0  0  0  0
   21.9690   28.2300    5.5550 C   0  0  0  0  0  0  0  0  0  0  0  0
   19.9640   27.6640    2.7230 N   0  0  0  0  0  0  0  0  0  0  0  0
  1  2  1  0
  1  3  1  0
  1  4  1  0
  4  5  2  0
  4  6  1  0
  3  7  1  0
  7  8  2  0
  7  9  1  0
 10  6  1  1
  8 11  1  0
  9 12  2  0
 11 12  1  0
 10 13  1  0
 10 14  1  0
 13 14  1  0
 12 15  1  0
 13 16  1  6
 16 17  1  0
 17 18  1  0
 19 18  1  0
 19 20  2  0
 19 21  2  0
 19 22  1  0
 22 23  1  0
 22 24  1  0
 24 25  1  6
 23 26  1  0
 24 27  1  0
 27 28  1  6
 26 29  1  0
 27 29  1  0
 28 30  3  0
M  END
>  <comRMSD>  (79) 
0.291872

>  <∆∆G>  (79) 
-7.691354

>  <N_constrained_atoms>  (79) 
28.0

>  <LE>  (79) 
-0.256378

>  <ref_pdb>  (79) 
x0104_0

>  <ref_mols>  (79) 
x0091_0_B_α,x0729_0_A_α

>  <%Rank>  (79) 
1.338367

>  <generation_date>  (79) 
nan

>  <method>  (79) 
nan

>  <submitter_email>  (79) 
nan

>  <original SMILES>  (79) 
Cc1cc(CN(C)C(=O)NC2CC2CCCS(=O)(=O)N2CCCC(C#N)C2C)no1

>  <ref_url>  (79) 
nan

>  <submitter_name>  (79) 
nan

>  <submitter_institution>  (79) 
nan

$$$$
6fx_7_0A_β-1VHU_0_A_α
     RDKit          3D

 16 16  0  0  0  0  0  0  0  0999 V2000
   -1.5850   20.9460   -8.5520 O   0  0  0  0  0  0  0  0  0  0  0  0
   -0.4450   19.9870   -7.9610 P   0  0  0  0  0  0  0  0  0  0  0  0
   -0.9290   19.7550   -6.4790 O   0  0  0  0  0  0  0  0  0  0  0  0
   -1.9250   22.0410   -7.7180 C   0  0  0  0  0  0  0  0  0  0  0  0
   -0.1460   18.7470   -8.7460 O   0  0  0  0  0  0  0  0  0  0  0  0
    0.7680   21.0100   -7.8120 O   0  0  0  0  0  0  0  0  0  0  0  0
   -3.3570   22.3430   -7.7770 N   0  0  0  0  0  0  0  0  0  0  0  0
   -1.5730   18.4060   -5.9840 P   0  0  0  0  0  0  0  0  0  0  0  0
   -3.7320   22.7570   -9.1340 C   0  0  0  0  0  0  0  0  0  0  0  0
   -3.7100   23.4540   -6.8700 C   0  0  0  0  0  0  0  0  0  0  0  0
   -0.4550   17.3140   -6.2320 O   0  0  0  0  0  0  0  0  0  0  0  0
   -2.1120   18.3720   -4.6270 O   0  0  0  0  0  0  0  0  0  0  0  0
   -2.6400   17.9990   -7.0860 O   0  0  0  0  0  0  0  0  0  0  0  0
   -5.2200   23.0650   -9.2310 C   0  0  0  0  0  0  0  0  0  0  0  0
   -5.1810   23.8430   -7.0170 C   0  0  0  0  0  0  0  0  0  0  0  0
   -5.5310   24.1620   -8.3750 O   0  0  0  0  0  0  0  0  0  0  0  0
  1  2  1  0
  2  3  1  0
  1  4  1  0
  2  5  2  0
  2  6  1  0
  4  7  1  0
  3  8  1  0
  7  9  1  0
  7 10  1  0
  8 11  1  0
  8 12  2  0
  8 13  1  0
  9 14  1  0
 10 15  1  0
 14 16  1  0
 15 16  1  0
M  END
>  <comRMSD>  (80) 
0.498366

>  <∆∆G>  (80) 
-11.651808

>  <N_constrained_atoms>  (80) 
16.0

>  <LE>  (80) 
-0.728238

>  <ref_pdb>  (80) 
x0104_0

>  <ref_mols>  (80) 


>  <%Rank>  (80) 
1.355525

>  <generation_date>  (80) 
nan

>  <method>  (80) 
nan

>  <submitter_email>  (80) 
nan

>  <original SMILES>  (80) 
O=P(O)(O)OP(=O)(O)OCN1CCOCC1

>  <ref_url>  (80) 
nan

>  <submitter_name>  (80) 
nan

>  <submitter_institution>  (80) 
nan

$$$$
x0895_0_A_α-x1015_0_A_α
     RDKit          3D

 24 26  0  0  0  0  0  0  0  0999 V2000
   -1.5060   14.5630    1.8200 O   0  0  0  0  0  0  0  0  0  0  0  0
   -2.5420   14.6910    1.1890 C   0  0  0  0  0  0  0  0  0  0  0  0
   -3.9490   14.8570    1.7480 C   0  0  0  0  0  0  0  0  0  0  0  0
   -2.6610   14.7090   -0.1790 N   0  0  0  0  0  0  0  0  0  0  0  0
   -4.6630   15.2720    0.5660 N   0  0  0  0  0  0  0  0  0  0  0  0
   -3.9070   15.1040   -0.5450 C   0  0  0  0  0  0  0  0  0  0  0  0
   -4.3810   15.3080   -1.7160 N   0  0  0  0  0  0  0  0  0  0  0  0
   -3.6430   15.1540   -2.9730 C   0  0  0  0  0  0  0  0  0  0  0  0
   -2.2960   14.4800   -2.7620 C   0  0  0  0  0  0  0  0  0  0  0  0
   -1.4300   14.3770   -4.0280 C   0  0  0  0  0  0  0  0  0  0  0  0
   -0.0680   13.6610   -3.9130 C   0  0  2  0  0  0  0  0  0  0  0  0
   -0.0850   12.2050   -3.9300 N   0  0  0  0  0  0  0  0  0  0  0  0
    0.5590   13.9110   -2.5480 C   0  0  0  0  0  0  0  0  0  0  0  0
    0.7470   14.9950   -2.0180 O   0  0  0  0  0  0  0  0  0  0  0  0
    0.3440   11.6930   -2.6990 C   0  0  0  0  0  0  0  0  0  0  0  0
    0.8910   12.7200   -1.9980 N   0  0  0  0  0  0  0  0  0  0  0  0
   -0.4900   11.4220   -5.0410 C   0  0  0  0  0  0  0  0  0  0  0  0
    0.2760   10.5390   -2.2720 O   0  0  0  0  0  0  0  0  0  0  0  0
    0.0730   11.6270   -6.3100 C   0  0  0  0  0  0  0  0  0  0  0  0
   -1.4600   10.4200   -4.9050 C   0  0  0  0  0  0  0  0  0  0  0  0
   -0.3220   10.8520   -7.4070 C   0  0  0  0  0  0  0  0  0  0  0  0
   -1.8570    9.6440   -5.9970 C   0  0  0  0  0  0  0  0  0  0  0  0
   -1.2860    9.8620   -7.2430 C   0  0  0  0  0  0  0  0  0  0  0  0
   -1.7750    8.9040   -8.5830 Cl  0  0  0  0  0  0  0  0  0  0  0  0
  1  2  2  0
  2  3  1  0
  2  4  1  0
  3  5  1  0
  4  6  1  0
  5  6  1  0
  6  7  2  3
  7  8  1  0
  8  9  1  0
  9 10  1  0
 11 10  1  1
 11 12  1  0
 11 13  1  0
 13 14  2  0
 12 15  1  0
 13 16  1  0
 15 16  1  0
 12 17  1  0
 15 18  2  0
 17 19  2  0
 17 20  1  0
 19 21  1  0
 20 22  2  0
 21 23  2  0
 22 23  1  0
 23 24  1  0
M  END
>  <comRMSD>  (81) 
0.205769

>  <∆∆G>  (81) 
-8.624326

>  <N_constrained_atoms>  (81) 
22.0

>  <LE>  (81) 
-0.359347

>  <ref_pdb>  (81) 
x0104_0

>  <ref_mols>  (81) 
x0895_0_A_α,x1015_0_A_α

>  <%Rank>  (81) 
1.372684

>  <generation_date>  (81) 
nan

>  <method>  (81) 
nan

>  <submitter_email>  (81) 
nan

>  <original SMILES>  (81) 
O=C1CNC(=NCCCC2C(=O)NC(=O)N2c2ccc(Cl)cc2)N1

>  <ref_url>  (81) 
nan

>  <submitter_name>  (81) 
nan

>  <submitter_institution>  (81) 
nan

$$$$
x0722_0_A_α-x1012_0_A_α
     RDKit          3D

 24 25  0  0  0  0  0  0  0  0999 V2000
   -4.3200   15.9230    2.0950 C   0  0  0  0  0  0  0  0  0  0  0  0
   -3.4030   15.2710    1.1700 C   0  0  0  0  0  0  0  0  0  0  0  0
   -2.2200   14.9170    1.6270 N   0  0  0  0  0  0  0  0  0  0  0  0
   -3.5790   14.9490   -0.1960 C   0  0  0  0  0  0  0  0  0  0  0  0
   -4.8020   15.2370   -1.0270 C   0  0  0  0  0  0  0  0  0  0  0  0
   -2.3810   14.3230   -0.5560 C   0  0  0  0  0  0  0  0  0  0  0  0
   -1.6040   14.3620    0.6030 N   0  0  0  0  0  0  0  0  0  0  0  0
   -0.2670   13.9110    0.8770 C   0  0  0  0  0  0  0  0  0  0  0  0
   -1.9680   13.7140   -1.8830 C   0  0  0  0  0  0  0  0  0  0  0  0
   -6.0910   14.6040   -0.5320 C   0  0  0  0  0  0  0  0  0  0  0  0
   -7.2010   15.1140   -0.6540 O   0  0  0  0  0  0  0  0  0  0  0  0
   -5.9790   13.3890    0.0830 N   0  0  0  0  0  0  0  0  0  0  0  0
   -1.0340   14.4470   -2.8700 C   0  0  2  0  0  0  0  0  0  0  0  0
   -1.7180   15.1010   -4.0550 C   0  0  0  0  0  0  0  0  0  0  0  0
    0.0890   13.6270   -3.5020 C   0  0  2  0  0  0  0  0  0  0  0  0
    0.5760   12.5560   -2.5650 C   0  0  0  0  0  0  0  0  0  0  0  0
    1.1670   14.6070   -3.9660 C   0  0  0  0  0  0  0  0  0  0  0  0
   -0.8070   16.0170   -4.7500 N   0  0  0  0  0  0  0  0  0  0  0  0
   -1.2450   17.3100   -4.7950 C   0  0  0  0  0  0  0  0  0  0  0  0
    0.0920   11.3240   -2.8070 O   0  0  0  0  0  0  0  0  0  0  0  0
    1.3410   12.7400   -1.6540 O   0  0  0  0  0  0  0  0  0  0  0  0
    0.6030   15.6060   -4.9810 C   0  0  0  0  0  0  0  0  0  0  0  0
   -0.3230   18.2830   -4.7110 N   0  0  0  0  0  0  0  0  0  0  0  0
   -2.4190   17.6280   -4.8820 O   0  0  0  0  0  0  0  0  0  0  0  0
  1  2  1  0
  2  3  2  0
  2  4  1  0
  4  5  1  0
  4  6  2  0
  3  7  1  0
  6  7  1  0
  7  8  1  0
  6  9  1  0
  5 10  1  0
 10 11  2  0
 10 12  1  0
 13  9  1  6
 13 14  1  0
 13 15  1  0
 15 16  1  1
 15 17  1  0
 14 18  1  0
 18 19  1  0
 16 20  1  0
 16 21  2  0
 17 22  1  0
 18 22  1  0
 19 23  1  0
 19 24  2  0
M  END
>  <comRMSD>  (82) 
0.481306

>  <∆∆G>  (82) 
-9.37648

>  <N_constrained_atoms>  (82) 
24.0

>  <LE>  (82) 
-0.390687

>  <ref_pdb>  (82) 
x0104_0

>  <ref_mols>  (82) 
x0722_0_A_α,x1012_0_A_α

>  <%Rank>  (82) 
1.389842

>  <generation_date>  (82) 
nan

>  <method>  (82) 
nan

>  <submitter_email>  (82) 
nan

>  <original SMILES>  (82) 
Cc1nn(C)c(CC2CN(C(N)=O)CCC2C(=O)O)c1CC(N)=O

>  <ref_url>  (82) 
nan

>  <submitter_name>  (82) 
nan

>  <submitter_institution>  (82) 
nan

$$$$
x0722_0_A_α-x0253_0_A_α
     RDKit          3D

 28 29  0  0  0  0  0  0  0  0999 V2000
   -4.5700   15.7220    2.2740 C   0  0  0  0  0  0  0  0  0  0  0  0
   -3.5330   15.2440    1.4000 C   0  0  0  0  0  0  0  0  0  0  0  0
   -2.4100   14.8740    1.9620 N   0  0  0  0  0  0  0  0  0  0  0  0
   -3.5210   15.1250   -0.0010 C   0  0  0  0  0  0  0  0  0  0  0  0
   -4.6430   15.4530   -0.9450 C   0  0  0  0  0  0  0  0  0  0  0  0
   -2.2380   14.6610   -0.2460 C   0  0  0  0  0  0  0  0  0  0  0  0
   -1.6300   14.5310    0.9740 N   0  0  0  0  0  0  0  0  0  0  0  0
   -0.3010   14.0960    1.3180 C   0  0  0  0  0  0  0  0  0  0  0  0
   -1.5060   14.3380   -1.4780 C   0  0  0  0  0  0  0  0  0  0  0  0
   -5.9240   14.7090   -0.6110 C   0  0  0  0  0  0  0  0  0  0  0  0
   -7.0460   15.1700   -0.8030 O   0  0  0  0  0  0  0  0  0  0  0  0
   -5.7760   13.4610   -0.0650 N   0  0  0  0  0  0  0  0  0  0  0  0
   -0.0880   14.8780   -1.2940 C   0  0  0  0  0  0  0  0  0  0  0  0
    0.9830   13.8180   -1.2030 C   0  0  0  0  0  0  0  0  0  0  0  0
    1.2790   13.5670   -2.5620 N   0  0  0  0  0  0  0  0  0  0  0  0
    0.9440   12.5360   -3.2010 C   0  0  0  0  0  0  0  0  0  0  0  0
    0.2810   11.4400   -2.7680 O   0  0  0  0  0  0  0  0  0  0  0  0
    1.3220   12.5710   -4.6400 C   0  0  0  0  0  0  0  0  0  0  0  0
    0.4580   11.7920   -5.4740 N   0  0  0  0  0  0  0  0  0  0  0  0
    1.0760   11.5550   -6.6460 C   0  0  0  0  0  0  0  0  0  0  0  0
    2.1490   12.0600   -6.8220 O   0  0  0  0  0  0  0  0  0  0  0  0
    0.4360   10.6610   -7.6350 C   0  0  0  0  0  0  0  0  0  0  0  0
   -0.5400    9.7480   -7.2320 C   0  0  0  0  0  0  0  0  0  0  0  0
    0.8120   10.7300   -8.9840 C   0  0  0  0  0  0  0  0  0  0  0  0
   -1.1440    8.9030   -8.1640 C   0  0  0  0  0  0  0  0  0  0  0  0
    0.2150    9.8920   -9.9150 C   0  0  0  0  0  0  0  0  0  0  0  0
   -2.1910    7.9290   -7.7170 C   0  0  0  0  0  0  0  0  0  0  0  0
   -0.7600    8.9810   -9.5120 C   0  0  0  0  0  0  0  0  0  0  0  0
  1  2  1  0
  2  3  2  0
  2  4  1  0
  4  5  1  0
  4  6  2  0
  3  7  1  0
  6  7  1  0
  7  8  1  0
  6  9  1  0
  5 10  1  0
 10 11  2  0
 10 12  1  0
  9 13  1  0
 13 14  1  0
 14 15  1  0
 15 16  2  3
 16 17  1  0
 16 18  1  0
 18 19  1  0
 19 20  1  0
 20 21  2  0
 20 22  1  0
 22 23  2  0
 22 24  1  0
 23 25  1  0
 24 26  2  0
 25 27  1  0
 25 28  2  0
 26 28  1  0
M  END
>  <comRMSD>  (83) 
0.283368

>  <∆∆G>  (83) 
-8.923664

>  <N_constrained_atoms>  (83) 
26.0

>  <LE>  (83) 
-0.318702

>  <ref_pdb>  (83) 
x0104_0

>  <ref_mols>  (83) 
x0722_0_A_α,x0253_0_A_α

>  <%Rank>  (83) 
1.407001

>  <generation_date>  (83) 
nan

>  <method>  (83) 
nan

>  <submitter_email>  (83) 
nan

>  <original SMILES>  (83) 
Cc1cccc(C(=O)NCC(O)=NCCCc2c(CC(N)=O)c(C)nn2C)c1

>  <ref_url>  (83) 
nan

>  <submitter_name>  (83) 
nan

>  <submitter_institution>  (83) 
nan

$$$$
x0104_0_A_α-x0685_0_A_α
     RDKit          3D

 18 19  0  0  0  0  0  0  0  0999 V2000
   -7.7930   14.7680    2.9830 C   0  0  1  0  0  0  0  0  0  0  0  0
   -7.9410   15.2020    4.3540 N   0  0  0  0  0  0  0  0  0  0  0  0
   -9.0570   15.1420    5.1440 C   0  0  0  0  0  0  0  0  0  0  0  0
   -8.6270   15.4590    2.0910 O   0  0  0  0  0  0  0  0  0  0  0  0
   -6.3810   14.9380    2.6880 N   0  0  0  0  0  0  0  0  0  0  0  0
   -8.0910   13.2740    2.8810 C   0  0  0  0  0  0  0  0  0  0  0  0
   -5.6560   14.9630    1.4970 C   0  0  0  0  0  0  0  0  0  0  0  0
   -9.1620   15.2050    6.5270 C   0  0  0  0  0  0  0  0  0  0  0  0
  -10.6190   14.9630    4.4410 S   0  0  0  0  0  0  0  0  0  0  0  0
   -4.2660   15.1180    1.4650 C   0  0  0  0  0  0  0  0  0  0  0  0
   -6.3630   14.8430    0.3530 N   0  0  0  0  0  0  0  0  0  0  0  0
  -10.5100   15.1060    6.9970 C   0  0  0  0  0  0  0  0  0  0  0  0
  -11.4060   14.9700    5.9630 C   0  0  0  0  0  0  0  0  0  0  0  0
   -3.5900   15.1570    0.2440 C   0  0  0  0  0  0  0  0  0  0  0  0
   -5.6850   14.8870   -0.8280 C   0  0  0  0  0  0  0  0  0  0  0  0
   -4.3120   15.0430   -0.9320 C   0  0  0  0  0  0  0  0  0  0  0  0
   -3.6810   15.0830   -2.2140 C   0  0  0  0  0  0  0  0  0  0  0  0
   -3.1720   15.1330   -3.2560 N   0  0  0  0  0  0  0  0  0  0  0  0
  1  2  1  0
  2  3  1  0
  1  4  1  0
  1  5  1  0
  1  6  1  1
  5  7  1  0
  3  8  2  0
  3  9  1  0
  7 10  2  0
  7 11  1  0
  8 12  1  0
  9 13  1  0
 12 13  2  0
 10 14  1  0
 11 15  2  0
 14 16  2  0
 15 16  1  0
 16 17  1  0
 17 18  3  0
M  END
>  <comRMSD>  (84) 
0.320831

>  <∆∆G>  (84) 
-5.098501

>  <N_constrained_atoms>  (84) 
18.0

>  <LE>  (84) 
-0.28325

>  <ref_pdb>  (84) 
x0104_0

>  <ref_mols>  (84) 
x0104_0_A_α,x0685_0_A_α

>  <%Rank>  (84) 
1.424159

>  <generation_date>  (84) 
nan

>  <method>  (84) 
nan

>  <submitter_email>  (84) 
nan

>  <original SMILES>  (84) 
CC(O)(Nc1ccc(C#N)cn1)Nc1cccs1

>  <ref_url>  (84) 
nan

>  <submitter_name>  (84) 
nan

>  <submitter_institution>  (84) 
nan

$$$$
x0628_0_A_α-x0837_0_A_α
     RDKit          3D

 21 22  0  0  0  0  0  0  0  0999 V2000
   -0.8770    8.9620   -7.4260 C   0  0  0  0  0  0  0  0  0  0  0  0
   -0.8800   10.1320   -6.5160 C   0  0  0  0  0  0  0  0  0  0  0  0
   -1.7680   10.4390   -5.5470 N   0  0  0  0  0  0  0  0  0  0  0  0
    0.0280   11.1200   -6.4960 N   0  0  0  0  0  0  0  0  0  0  0  0
   -0.2840   11.9950   -5.5520 N   0  0  0  0  0  0  0  0  0  0  0  0
   -1.4370   11.5790   -4.9240 C   0  0  0  0  0  0  0  0  0  0  0  0
   -2.1440   12.2530   -3.8020 C   0  0  0  0  0  0  0  0  0  0  0  0
    0.4390   13.2030   -5.1980 C   0  0  0  0  0  0  0  0  0  0  0  0
    1.6170   12.9290   -4.2750 C   0  0  0  0  0  0  0  0  0  0  0  0
   -3.0270   13.3990   -4.2050 C   0  0  0  0  0  0  0  0  0  0  0  0
    1.1670   12.3030   -3.0110 C   0  0  0  0  0  0  0  0  0  0  0  0
   -3.1730   14.9480   -2.8190 I   0  0  0  0  0  0  0  0  0  0  0  0
    0.6350   11.1770   -3.0100 O   0  0  0  0  0  0  0  0  0  0  0  0
    1.3080   12.9260   -1.7780 O   0  0  0  0  0  0  0  0  0  0  0  0
   -4.1930   14.5450   -1.0120 C   0  0  1  0  0  0  0  0  0  0  0  0
   -3.5630   15.0650    0.2190 C   0  0  0  0  0  0  0  0  0  0  0  0
   -5.5970   15.0160   -1.1290 C   0  0  0  0  0  0  0  0  0  0  0  0
   -4.2440   15.2210    1.3240 C   0  0  0  0  0  0  0  0  0  0  0  0
   -6.3140   14.8730    0.1380 C   0  0  0  0  0  0  0  0  0  0  0  0
   -7.5590   14.7280    0.1440 O   0  0  0  0  0  0  0  0  0  0  0  0
   -5.6210   14.8870    1.3790 N   0  0  0  0  0  0  0  0  0  0  0  0
  1  2  1  0
  2  3  1  0
  2  4  2  0
  4  5  1  0
  3  6  2  0
  5  6  1  0
  6  7  1  0
  5  8  1  0
  8  9  1  0
  7 10  1  0
  9 11  1  0
 10 12  1  0
 11 13  2  0
 11 14  1  0
 15 12  1  6
 15 16  1  0
 15 17  1  0
 16 18  2  0
 17 19  1  0
 19 20  2  0
 18 21  1  0
 19 21  1  0
M  END
>  <comRMSD>  (85) 
0.205544

>  <∆∆G>  (85) 
-4.68784

>  <N_constrained_atoms>  (85) 
20.0

>  <LE>  (85) 
-0.22323

>  <ref_pdb>  (85) 
x0104_0

>  <ref_mols>  (85) 
x0628_0_A_α,x0837_0_A_α

>  <%Rank>  (85) 
1.441318

>  <generation_date>  (85) 
nan

>  <method>  (85) 
nan

>  <submitter_email>  (85) 
nan

>  <original SMILES>  (85) 
Cc1nc(CCIC2C=CNC(=O)C2)n(CCC(=O)O)n1

>  <ref_url>  (85) 
nan

>  <submitter_name>  (85) 
nan

>  <submitter_institution>  (85) 
nan

$$$$
x0729_1_B_α-x0933_4_B_α
     RDKit          3D

 20 21  0  0  0  0  0  0  0  0999 V2000
   20.5890   24.9400    5.9060 C   0  0  0  0  0  0  0  0  0  0  0  0
   20.0470   26.3430    6.2130 C   0  0  1  0  0  0  0  0  0  0  0  0
   20.2660   26.6940    7.6600 N   0  0  0  0  0  0  0  0  0  0  0  0
   20.5270   27.4750    5.2990 C   0  0  2  0  0  0  0  0  0  0  0  0
   20.2220   27.2140    3.8840 C   0  0  0  0  0  0  0  0  0  0  0  0
   18.9580   27.4460    8.4790 S   0  0  0  0  0  0  0  0  0  0  0  0
   21.6560   27.1240    7.9890 C   0  0  0  0  0  0  0  0  0  0  0  0
   22.0100   27.7390    5.5320 C   0  0  0  0  0  0  0  0  0  0  0  0
   19.5470   28.2670    9.5150 O   0  0  0  0  0  0  0  0  0  0  0  0
   19.9710   27.0460    2.7680 N   0  0  0  0  0  0  0  0  0  0  0  0
   18.0170   26.4050    8.8260 O   0  0  0  0  0  0  0  0  0  0  0  0
   18.2260   28.5280    7.2290 C   0  0  0  0  0  0  0  0  0  0  0  0
   22.2350   28.1310    6.9910 C   0  0  0  0  0  0  0  0  0  0  0  0
   16.8130   29.0440    7.5420 C   0  0  1  0  0  0  0  0  0  0  0  0
   16.8040   29.8140    8.8700 C   0  0  0  0  0  0  0  0  0  0  0  0
   16.2240   29.9270    6.4350 C   0  0  0  0  0  0  0  0  0  0  0  0
   17.5560   31.0740    8.8030 N   0  0  0  0  0  0  0  0  0  0  0  0
   16.3940   31.3430    6.7350 N   0  0  0  0  0  0  0  0  0  0  0  0
   17.5680   31.6270    7.4820 C   0  0  1  0  0  0  0  0  0  0  0  0
   17.5880   33.0360    7.6870 N   0  0  0  0  0  0  0  0  0  0  0  0
  2  1  1  6
  2  3  1  0
  2  4  1  0
  4  5  1  6
  3  6  1  0
  3  7  1  0
  4  8  1  0
  6  9  2  0
  5 10  3  0
  6 11  2  0
  6 12  1  0
  7 13  1  0
  8 13  1  0
 14 12  1  6
 14 15  1  0
 14 16  1  0
 15 17  1  0
 16 18  1  0
 17 19  1  0
 18 19  1  0
 19 20  1  1
M  END
>  <comRMSD>  (86) 
0.302422

>  <∆∆G>  (86) 
-3.314518

>  <N_constrained_atoms>  (86) 
20.0

>  <LE>  (86) 
-0.165726

>  <ref_pdb>  (86) 
x0104_0

>  <ref_mols>  (86) 
x0729_1_B_α,x0933_4_B_α

>  <%Rank>  (86) 
1.458476

>  <generation_date>  (86) 
nan

>  <method>  (86) 
nan

>  <submitter_email>  (86) 
nan

>  <original SMILES>  (86) 
CC1C(C#N)CCCN1S(=O)(=O)CC1CNC(N)NC1

>  <ref_url>  (86) 
nan

>  <submitter_name>  (86) 
nan

>  <submitter_institution>  (86) 
nan

$$$$
x0253_0_A_α-x0722_0_A_α
     RDKit          3D

 28 29  0  0  0  0  0  0  0  0999 V2000
    0.4430   11.8050   -5.4690 N   0  0  0  0  0  0  0  0  0  0  0  0
    1.0630   11.5560   -6.6420 C   0  0  0  0  0  0  0  0  0  0  0  0
    2.1370   12.0580   -6.8270 O   0  0  0  0  0  0  0  0  0  0  0  0
    1.3140   12.6030   -4.6580 C   0  0  0  0  0  0  0  0  0  0  0  0
    0.9540   12.5270   -3.2140 C   0  0  0  0  0  0  0  0  0  0  0  0
    0.4240   10.6550   -7.6260 C   0  0  0  0  0  0  0  0  0  0  0  0
    1.2670   13.5450   -2.5600 N   0  0  0  0  0  0  0  0  0  0  0  0
    0.3230   11.4120   -2.7820 O   0  0  0  0  0  0  0  0  0  0  0  0
   -0.5500    9.7380   -7.2370 C   0  0  0  0  0  0  0  0  0  0  0  0
    0.8080   10.7260   -8.9730 C   0  0  0  0  0  0  0  0  0  0  0  0
    1.0100   13.8190   -1.2050 C   0  0  0  0  0  0  0  0  0  0  0  0
   -1.1430    8.8950   -8.1770 C   0  0  0  0  0  0  0  0  0  0  0  0
    0.2240    9.8910   -9.9160 C   0  0  0  0  0  0  0  0  0  0  0  0
   -2.1900    7.9130   -7.7510 C   0  0  0  0  0  0  0  0  0  0  0  0
   -0.0830   14.8610   -1.3270 C   0  0  0  0  0  0  0  0  0  0  0  0
   -0.7490    8.9780   -9.5240 C   0  0  0  0  0  0  0  0  0  0  0  0
   -1.4920   14.2750   -1.4790 C   0  0  0  0  0  0  0  0  0  0  0  0
   -2.2310   14.6280   -0.2600 C   0  0  0  0  0  0  0  0  0  0  0  0
   -3.5000   15.1250   -0.0190 C   0  0  0  0  0  0  0  0  0  0  0  0
   -1.6220   14.4990    0.9550 N   0  0  0  0  0  0  0  0  0  0  0  0
   -0.2970   14.0380    1.2850 C   0  0  0  0  0  0  0  0  0  0  0  0
   -4.6220   15.4720   -0.9590 C   0  0  0  0  0  0  0  0  0  0  0  0
   -2.3800   14.8690    1.9400 N   0  0  0  0  0  0  0  0  0  0  0  0
   -3.4900   15.2660    1.3810 C   0  0  0  0  0  0  0  0  0  0  0  0
   -4.5010   15.8000    2.2550 C   0  0  0  0  0  0  0  0  0  0  0  0
   -5.9130   14.7260   -0.6380 C   0  0  0  0  0  0  0  0  0  0  0  0
   -7.0320   15.2030   -0.8310 O   0  0  0  0  0  0  0  0  0  0  0  0
   -5.7790   13.4780   -0.1020 N   0  0  0  0  0  0  0  0  0  0  0  0
  1  2  1  0
  2  3  2  0
  1  4  1  0
  4  5  1  0
  2  6  1  0
  5  7  2  3
  5  8  1  0
  6  9  2  0
  6 10  1  0
  7 11  1  0
  9 12  1  0
 10 13  2  0
 12 14  1  0
 11 15  1  0
 12 16  2  0
 13 16  1  0
 15 17  1  0
 17 18  1  0
 18 19  2  0
 18 20  1  0
 20 21  1  0
 19 22  1  0
 20 23  1  0
 19 24  1  0
 23 24  2  0
 24 25  1  0
 22 26  1  0
 26 27  2  0
 26 28  1  0
M  END
>  <comRMSD>  (87) 
0.294491

>  <∆∆G>  (87) 
-9.384944

>  <N_constrained_atoms>  (87) 
26.0

>  <LE>  (87) 
-0.335177

>  <ref_pdb>  (87) 
x0104_0

>  <ref_mols>  (87) 
x0253_0_A_α,x0722_0_A_α

>  <%Rank>  (87) 
1.475635

>  <generation_date>  (87) 
nan

>  <method>  (87) 
nan

>  <submitter_email>  (87) 
nan

>  <original SMILES>  (87) 
Cc1cccc(C(=O)NCC(O)=NCCCc2c(CC(N)=O)c(C)nn2C)c1

>  <ref_url>  (87) 
nan

>  <submitter_name>  (87) 
nan

>  <submitter_institution>  (87) 
nan

$$$$
x0950_1_A_α-x0253_0_A_α
     RDKit          3D

 15 15  0  0  0  0  0  0  0  0999 V2000
    0.9900   14.0140   -4.7020 C   0  0  0  0  0  0  0  0  0  0  0  0
    1.2370   12.5380   -4.4400 C   0  0  2  0  0  0  0  0  0  0  0  0
    0.4810   11.7460   -5.3860 O   0  0  0  0  0  0  0  0  0  0  0  0
    0.8310   12.1430   -3.0230 C   0  0  0  0  0  0  0  0  0  0  0  0
    0.1370   11.1780   -2.7380 O   0  0  0  0  0  0  0  0  0  0  0  0
    1.3220   12.9870   -2.0840 O   0  0  0  0  0  0  0  0  0  0  0  0
    1.1420   11.6560   -6.5580 C   0  0  0  0  0  0  0  0  0  0  0  0
    2.1720   12.2460   -6.7490 O   0  0  0  0  0  0  0  0  0  0  0  0
    0.4780   10.7380   -7.5340 C   0  0  0  0  0  0  0  0  0  0  0  0
   -0.5030    9.8290   -7.1240 C   0  0  0  0  0  0  0  0  0  0  0  0
    0.8410   10.7800   -8.8880 C   0  0  0  0  0  0  0  0  0  0  0  0
   -1.1140    8.9760   -8.0520 C   0  0  0  0  0  0  0  0  0  0  0  0
    0.2380    9.9360   -9.8120 C   0  0  0  0  0  0  0  0  0  0  0  0
   -2.1670    8.0060   -7.6070 C   0  0  0  0  0  0  0  0  0  0  0  0
   -0.7370    9.0360   -9.3970 C   0  0  0  0  0  0  0  0  0  0  0  0
  2  1  1  6
  2  3  1  0
  2  4  1  0
  4  5  2  0
  4  6  1  0
  3  7  1  0
  7  8  2  0
  7  9  1  0
  9 10  2  0
  9 11  1  0
 10 12  1  0
 11 13  2  0
 12 14  1  0
 12 15  2  0
 13 15  1  0
M  END
>  <comRMSD>  (88) 
0.191177

>  <∆∆G>  (88) 
-2.302507

>  <N_constrained_atoms>  (88) 
15.0

>  <LE>  (88) 
-0.1535

>  <ref_pdb>  (88) 
x0104_0

>  <ref_mols>  (88) 
x0950_1_A_α,x0253_0_A_α

>  <%Rank>  (88) 
1.492793

>  <generation_date>  (88) 
nan

>  <method>  (88) 
nan

>  <submitter_email>  (88) 
nan

>  <original SMILES>  (88) 
Cc1cccc(C(=O)O[C@@H](C)C(=O)O)c1

>  <ref_url>  (88) 
nan

>  <submitter_name>  (88) 
nan

>  <submitter_institution>  (88) 
nan

$$$$
x0128_0_A_α-x0849_0_A_α
     RDKit          3D

 25 28  0  0  0  0  0  0  0  0999 V2000
   -6.4580   14.7860    2.4370 N   0  0  0  0  0  0  0  0  0  0  0  0
   -7.6500   15.1480    3.0610 C   0  0  0  0  0  0  0  0  0  0  0  0
   -8.7210   15.2700    2.4740 O   0  0  0  0  0  0  0  0  0  0  0  0
   -6.1540   14.8400    1.0510 C   0  0  0  0  0  0  0  0  0  0  0  0
   -7.4890   15.3780    4.4240 N   0  0  0  0  0  0  0  0  0  0  0  0
   -7.2090   14.9170    0.1420 C   0  0  0  0  0  0  0  0  0  0  0  0
   -4.7970   14.8220    0.5890 C   0  0  0  0  0  0  0  0  0  0  0  0
   -6.9740   14.9920   -1.2100 C   0  0  0  0  0  0  0  0  0  0  0  0
   -4.5930   14.8960   -0.7960 C   0  0  0  0  0  0  0  0  0  0  0  0
   -8.3660   16.1250    5.2540 C   0  0  0  0  0  0  0  0  0  0  0  0
   -3.7400   14.7330    1.4380 N   0  0  0  0  0  0  0  0  0  0  0  0
   -5.6840   14.9840   -1.6720 C   0  0  0  0  0  0  0  0  0  0  0  0
   -9.0910   17.2480    4.8620 C   0  0  0  0  0  0  0  0  0  0  0  0
   -8.5240   15.7100    6.5800 C   0  0  0  0  0  0  0  0  0  0  0  0
   -2.4840   14.6990    0.9700 C   0  0  0  0  0  0  0  0  0  0  0  0
   -3.2900   14.8760   -1.2580 C   0  0  0  0  0  0  0  0  0  0  0  0
   -3.0230   14.9850   -3.1530 Br  0  0  0  0  0  0  0  0  0  0  0  0
   -9.9260   17.9500    5.6730 N   0  0  0  0  0  0  0  0  0  0  0  0
   -9.3750   16.4150    7.4360 C   0  0  0  0  0  0  0  0  0  0  0  0
   -2.2030   14.7720   -0.3960 C   0  0  0  0  0  0  0  0  0  0  0  0
   -1.5040   14.5880    1.8560 N   0  0  0  0  0  0  0  0  0  0  0  0
  -10.0470   17.5190    6.9400 C   0  0  0  0  0  0  0  0  0  0  0  0
   -0.2300   14.5520    1.4310 C   0  0  0  0  0  0  0  0  0  0  0  0
   -0.8580   14.7330   -0.8090 C   0  0  0  0  0  0  0  0  0  0  0  0
    0.1440   14.6240    0.1130 C   0  0  0  0  0  0  0  0  0  0  0  0
  1  2  1  0
  2  3  2  0
  1  4  1  0
  2  5  1  0
  4  6  2  0
  4  7  1  0
  6  8  1  0
  7  9  2  0
  5 10  1  0
  7 11  1  0
  8 12  2  0
  9 12  1  0
 10 13  2  0
 10 14  1  0
 11 15  2  0
  9 16  1  0
 16 17  1  0
 13 18  1  0
 14 19  2  0
 15 20  1  0
 16 20  2  0
 15 21  1  0
 18 22  2  0
 19 22  1  0
 21 23  2  0
 20 24  1  0
 23 25  1  0
 24 25  2  0
M  END
>  <comRMSD>  (89) 
0.507469

>  <∆∆G>  (89) 
-10.122363

>  <N_constrained_atoms>  (89) 
25.0

>  <LE>  (89) 
-0.404895

>  <ref_pdb>  (89) 
x0104_0

>  <ref_mols>  (89) 
x0128_0_A_α,x0849_0_A_α

>  <%Rank>  (89) 
1.509952

>  <generation_date>  (89) 
nan

>  <method>  (89) 
nan

>  <submitter_email>  (89) 
nan

>  <original SMILES>  (89) 
O=C(Nc1cccnc1)Nc1cccc2c(Br)c3cccnc3nc12

>  <ref_url>  (89) 
nan

>  <submitter_name>  (89) 
nan

>  <submitter_institution>  (89) 
nan

$$$$
x0837_0_A_α-x1015_0_A_α
     RDKit          3D

 24 26  0  0  0  0  0  0  0  0999 V2000
   -7.5250   14.4500    0.4340 O   0  0  0  0  0  0  0  0  0  0  0  0
   -6.3460   14.8260    0.3070 C   0  0  0  0  0  0  0  0  0  0  0  0
   -5.4890   14.8680    1.4630 N   0  0  0  0  0  0  0  0  0  0  0  0
   -5.7340   15.2650   -0.9680 C   0  0  0  0  0  0  0  0  0  0  0  0
   -4.0960   15.1540    1.2530 C   0  0  0  0  0  0  0  0  0  0  0  0
   -4.3930   14.6690   -1.0900 C   0  0  1  0  0  0  0  0  0  0  0  0
   -3.4660   15.0580   -2.9070 I   0  0  0  0  0  0  0  0  0  0  0  0
   -3.5720   15.0610    0.0610 C   0  0  0  0  0  0  0  0  0  0  0  0
   -2.3110   13.6410   -3.8250 C   0  0  0  0  0  0  0  0  0  0  0  0
   -1.0890   14.1030   -4.5060 C   0  0  0  0  0  0  0  0  0  0  0  0
    0.1970   13.6000   -3.9640 C   0  0  2  0  0  0  0  0  0  0  0  0
    0.0210   12.1310   -3.9210 N   0  0  0  0  0  0  0  0  0  0  0  0
    0.5290   14.0230   -2.6030 C   0  0  0  0  0  0  0  0  0  0  0  0
    0.7290   15.1660   -2.1900 O   0  0  0  0  0  0  0  0  0  0  0  0
    0.3110   11.7020   -2.6150 C   0  0  0  0  0  0  0  0  0  0  0  0
    0.5940   12.8540   -1.7970 N   0  0  0  0  0  0  0  0  0  0  0  0
   -0.4020   11.3920   -5.0310 C   0  0  0  0  0  0  0  0  0  0  0  0
    0.3100   10.4910   -2.2710 O   0  0  0  0  0  0  0  0  0  0  0  0
    0.1190   11.5970   -6.3050 C   0  0  0  0  0  0  0  0  0  0  0  0
   -1.3660   10.4170   -4.8920 C   0  0  0  0  0  0  0  0  0  0  0  0
   -0.3190   10.8470   -7.3750 C   0  0  0  0  0  0  0  0  0  0  0  0
   -1.8070    9.6640   -5.9610 C   0  0  0  0  0  0  0  0  0  0  0  0
   -1.2840    9.8720   -7.2220 C   0  0  0  0  0  0  0  0  0  0  0  0
   -1.8470    8.9090   -8.5770 Cl  0  0  0  0  0  0  0  0  0  0  0  0
  1  2  2  0
  2  3  1  0
  2  4  1  0
  3  5  1  0
  4  6  1  0
  6  7  1  6
  5  8  2  0
  6  8  1  0
  7  9  1  0
  9 10  1  0
 11 10  1  1
 11 12  1  0
 11 13  1  0
 13 14  2  0
 12 15  1  0
 13 16  1  0
 15 16  1  0
 12 17  1  0
 15 18  2  0
 17 19  2  0
 17 20  1  0
 19 21  1  0
 20 22  2  0
 21 23  2  0
 22 23  1  0
 23 24  1  0
M  END
>  <comRMSD>  (90) 
0.322833

>  <∆∆G>  (90) 
-7.548268

>  <N_constrained_atoms>  (90) 
23.0

>  <LE>  (90) 
-0.314511

>  <ref_pdb>  (90) 
x0104_0

>  <ref_mols>  (90) 
x0837_0_A_α,x1015_0_A_α

>  <%Rank>  (90) 
1.527111

>  <generation_date>  (90) 
nan

>  <method>  (90) 
nan

>  <submitter_email>  (90) 
nan

>  <original SMILES>  (90) 
O=C1CC(ICCC2C(=O)NC(=O)N2c2ccc(Cl)cc2)C=CN1

>  <ref_url>  (90) 
nan

>  <submitter_name>  (90) 
nan

>  <submitter_institution>  (90) 
nan

$$$$
x0290_0_A_α-x0950_0_A_α
     RDKit          3D

 20 20  0  0  0  0  0  0  0  0999 V2000
   -7.6630   13.7350    1.0250 N   0  0  0  0  0  0  0  0  0  0  0  0
   -8.5020   14.9120    0.7840 C   0  0  0  0  0  0  0  0  0  0  0  0
   -6.4230   14.0560    1.7790 C   0  0  0  0  0  0  0  0  0  0  0  0
   -5.2880   14.4900    0.8430 C   0  0  0  0  0  0  0  0  0  0  0  0
   -5.4630   14.5230   -0.3750 O   0  0  0  0  0  0  0  0  0  0  0  0
   -4.1150   14.8080    1.4940 N   0  0  0  0  0  0  0  0  0  0  0  0
   -2.8370   14.6760    0.9520 C   0  0  0  0  0  0  0  0  0  0  0  0
   -1.8500   14.5600    1.8640 N   0  0  0  0  0  0  0  0  0  0  0  0
   -2.5890   14.6620   -0.4110 C   0  0  0  0  0  0  0  0  0  0  0  0
   -0.5870   14.4280    1.4100 C   0  0  0  0  0  0  0  0  0  0  0  0
   -1.2720   14.5240   -0.8600 C   0  0  0  0  0  0  0  0  0  0  0  0
   -0.9080   14.4950   -2.3170 C   0  0  0  0  0  0  0  0  0  0  0  0
   -0.2540   14.4070    0.0800 C   0  0  0  0  0  0  0  0  0  0  0  0
    0.6080   14.3430   -2.4550 C   0  0  0  0  0  0  0  0  0  0  0  0
    1.0360   12.9980   -2.1500 O   0  0  0  0  0  0  0  0  0  0  0  0
    0.8470   12.1060   -3.1490 C   0  0  0  0  0  0  0  0  0  0  0  0
    1.2510   12.7140   -4.4940 C   0  0  1  0  0  0  0  0  0  0  0  0
    0.4100   10.9680   -3.0070 O   0  0  0  0  0  0  0  0  0  0  0  0
    2.7400   13.0060   -4.5280 C   0  0  0  0  0  0  0  0  0  0  0  0
    0.9230   11.8490   -5.5800 O   0  0  0  0  0  0  0  0  0  0  0  0
  1  2  1  0
  1  3  1  0
  3  4  1  0
  4  5  2  0
  4  6  1  0
  6  7  1  0
  7  8  2  0
  7  9  1  0
  8 10  1  0
  9 11  2  0
 11 12  1  0
 10 13  2  0
 11 13  1  0
 12 14  1  0
 14 15  1  0
 15 16  1  0
 16 17  1  0
 16 18  2  0
 17 19  1  1
 17 20  1  0
M  END
>  <comRMSD>  (91) 
0.288324

>  <∆∆G>  (91) 
-8.679161

>  <N_constrained_atoms>  (91) 
19.0

>  <LE>  (91) 
-0.433958

>  <ref_pdb>  (91) 
x0104_0

>  <ref_mols>  (91) 
x0290_0_A_α,x0950_0_A_α

>  <%Rank>  (91) 
1.544269

>  <generation_date>  (91) 
nan

>  <method>  (91) 
nan

>  <submitter_email>  (91) 
nan

>  <original SMILES>  (91) 
CNCC(=O)Nc1cc(CCOC(=O)[C@@H](C)O)ccn1

>  <ref_url>  (91) 
nan

>  <submitter_name>  (91) 
nan

>  <submitter_institution>  (91) 
nan

$$$$
x0729_1_B_α-x0091_0_B_α
     RDKit          3D

 30 32  0  0  0  0  0  0  0  0999 V2000
   19.8360   24.8910    6.1320 C   0  0  0  0  0  0  0  0  0  0  0  0
   19.9070   26.4180    6.2260 C   0  0  1  0  0  0  0  0  0  0  0  0
   20.0830   26.8770    7.6160 N   0  0  0  0  0  0  0  0  0  0  0  0
   20.9810   26.8890    5.2170 C   0  0  1  0  0  0  0  0  0  0  0  0
   20.3690   27.0410    3.8820 C   0  0  0  0  0  0  0  0  0  0  0  0
   18.8280   27.4420    8.6260 S   0  0  2  0  0  0  0  0  0  0  0  0
   21.4840   27.0490    7.9720 C   0  0  0  0  0  0  0  0  0  0  0  0
   21.6320   28.1940    5.6630 C   0  0  0  0  0  0  0  0  0  0  0  0
   19.4990   28.3850    9.4960 O   0  0  0  0  0  0  0  0  0  0  0  0
   19.8950   27.1440    2.8290 N   0  0  0  0  0  0  0  0  0  0  0  0
   18.1010   26.1700    9.0980 N   0  0  0  0  0  0  0  0  0  0  0  0
   17.6780   28.3680    7.6380 C   0  0  0  0  0  0  0  0  0  0  0  0
   22.1390   28.1340    7.1120 C   0  0  0  0  0  0  0  0  0  0  0  0
   17.9360   25.8700   10.5460 C   0  0  0  0  0  0  0  0  0  0  0  0
   17.0190   24.6460   10.6750 C   0  0  0  0  0  0  0  0  0  0  0  0
   16.2870   24.2970   11.9670 C   0  0  2  0  0  0  0  0  0  0  0  0
   16.6740   22.9900   12.5860 C   0  0  0  0  0  0  0  0  0  0  0  0
   15.2980   23.1380   11.9930 C   0  0  1  0  0  0  0  0  0  0  0  0
   14.2250   22.8360   12.9040 N   0  0  0  0  0  0  0  0  0  0  0  0
   13.6750   21.5660   12.7630 C   0  0  0  0  0  0  0  0  0  0  0  0
   12.7640   21.1170   13.7120 N   0  0  0  0  0  0  0  0  0  0  0  0
   13.9950   20.8390   11.8240 O   0  0  0  0  0  0  0  0  0  0  0  0
   12.2050   22.0530   14.6680 C   0  0  0  0  0  0  0  0  0  0  0  0
   12.2060   19.7560   13.7030 C   0  0  0  0  0  0  0  0  0  0  0  0
   13.1540   18.7780   14.3370 C   0  0  0  0  0  0  0  0  0  0  0  0
   12.6810   17.7370   15.0420 N   0  0  0  0  0  0  0  0  0  0  0  0
   14.5740   18.7650   14.3190 C   0  0  0  0  0  0  0  0  0  0  0  0
   13.7870   17.0370   15.4890 O   0  0  0  0  0  0  0  0  0  0  0  0
   14.9160   17.6540   15.0550 C   0  0  0  0  0  0  0  0  0  0  0  0
   16.1940   17.0290   15.4480 C   0  0  0  0  0  0  0  0  0  0  0  0
  2  1  1  1
  2  3  1  0
  2  4  1  0
  4  5  1  6
  3  6  1  0
  3  7  1  0
  4  8  1  0
  6  9  2  0
  5 10  3  0
  6 11  2  0
  6 12  1  6
  7 13  1  0
  8 13  1  0
 11 14  1  0
 14 15  1  0
 16 15  1  6
 16 17  1  0
 16 18  1  0
 17 18  1  0
 18 19  1  1
 19 20  1  0
 20 21  1  0
 20 22  2  0
 21 23  1  0
 21 24  1  0
 24 25  1  0
 25 26  2  0
 25 27  1  0
 26 28  1  0
 27 29  2  0
 28 29  1  0
 29 30  1  0
M  END
>  <comRMSD>  (92) 
0.320022

>  <∆∆G>  (92) 
-8.992458

>  <N_constrained_atoms>  (92) 
28.0

>  <LE>  (92) 
-0.299749

>  <ref_pdb>  (92) 
x0104_0

>  <ref_mols>  (92) 
x0729_1_B_α,x0091_0_B_α

>  <%Rank>  (92) 
1.561428

>  <generation_date>  (92) 
nan

>  <method>  (92) 
nan

>  <submitter_email>  (92) 
nan

>  <original SMILES>  (92) 
Cc1cc(CN(C)C(=O)NC2CC2CCN=S(C)(=O)N2CCCC(C#N)C2C)no1

>  <ref_url>  (92) 
nan

>  <submitter_name>  (92) 
nan

>  <submitter_institution>  (92) 
nan

$$$$
x0722_0_A_α-x0465_0_A_α
     RDKit          3D

 27 28  0  0  0  0  0  0  0  0999 V2000
   -4.5620   15.7150    2.2280 C   0  0  0  0  0  0  0  0  0  0  0  0
   -3.5080   15.2360    1.3760 C   0  0  0  0  0  0  0  0  0  0  0  0
   -2.3930   14.8730    1.9560 N   0  0  0  0  0  0  0  0  0  0  0  0
   -3.4830   15.1120   -0.0240 C   0  0  0  0  0  0  0  0  0  0  0  0
   -4.5860   15.4310   -0.9950 C   0  0  0  0  0  0  0  0  0  0  0  0
   -2.1860   14.6490   -0.2500 C   0  0  0  0  0  0  0  0  0  0  0  0
   -1.6020   14.5280    0.9770 N   0  0  0  0  0  0  0  0  0  0  0  0
   -0.2710   14.0950    1.3190 C   0  0  0  0  0  0  0  0  0  0  0  0
   -1.4490   14.3280   -1.4820 C   0  0  0  0  0  0  0  0  0  0  0  0
   -5.8960   14.7220   -0.6700 C   0  0  0  0  0  0  0  0  0  0  0  0
   -7.0070   15.2220   -0.8250 O   0  0  0  0  0  0  0  0  0  0  0  0
   -5.7930   13.4500   -0.1790 N   0  0  0  0  0  0  0  0  0  0  0  0
    0.0030   14.7940   -1.2790 C   0  0  0  0  0  0  0  0  0  0  0  0
    0.9800   13.6390   -1.3820 C   0  0  0  0  0  0  0  0  0  0  0  0
    0.9930   13.4080   -2.7850 N   0  0  0  0  0  0  0  0  0  0  0  0
    0.7460   12.3380   -3.4050 C   0  0  0  0  0  0  0  0  0  0  0  0
    0.7870   12.4450   -4.9140 C   0  0  1  0  0  0  0  0  0  0  0  0
    0.4390   11.1280   -2.8870 O   0  0  0  0  0  0  0  0  0  0  0  0
    2.1670   12.9860   -5.2120 C   0  0  0  0  0  0  0  0  0  0  0  0
    0.6190   11.2470   -5.6380 O   0  0  0  0  0  0  0  0  0  0  0  0
   -0.6200   10.6860   -5.7050 C   0  0  0  0  0  0  0  0  0  0  0  0
   -0.7400    9.6400   -6.6190 C   0  0  0  0  0  0  0  0  0  0  0  0
   -1.7340   11.0630   -4.9550 C   0  0  0  0  0  0  0  0  0  0  0  0
    0.3140    9.2590   -7.3560 F   0  0  0  0  0  0  0  0  0  0  0  0
   -1.9440    8.9660   -6.7940 C   0  0  0  0  0  0  0  0  0  0  0  0
   -2.9500   10.3870   -5.1300 C   0  0  0  0  0  0  0  0  0  0  0  0
   -3.0530    9.3430   -6.0450 C   0  0  0  0  0  0  0  0  0  0  0  0
  1  2  1  0
  2  3  2  0
  2  4  1  0
  4  5  1  0
  4  6  2  0
  3  7  1  0
  6  7  1  0
  7  8  1  0
  6  9  1  0
  5 10  1  0
 10 11  2  0
 10 12  1  0
  9 13  1  0
 13 14  1  0
 14 15  1  0
 15 16  2  3
 16 17  1  0
 16 18  1  0
 17 19  1  1
 17 20  1  0
 20 21  1  0
 21 22  2  0
 21 23  1  0
 22 24  1  0
 22 25  1  0
 23 26  2  0
 25 27  2  0
 26 27  1  0
M  END
>  <comRMSD>  (93) 
0.304542

>  <∆∆G>  (93) 
-10.650624

>  <N_constrained_atoms>  (93) 
25.0

>  <LE>  (93) 
-0.394468

>  <ref_pdb>  (93) 
x0104_0

>  <ref_mols>  (93) 
x0722_0_A_α,x0465_0_A_α

>  <%Rank>  (93) 
1.578586

>  <generation_date>  (93) 
nan

>  <method>  (93) 
nan

>  <submitter_email>  (93) 
nan

>  <original SMILES>  (93) 
Cc1nn(C)c(CCCN=C(O)[C@@H](C)Oc2ccccc2F)c1CC(N)=O

>  <ref_url>  (93) 
nan

>  <submitter_name>  (93) 
nan

>  <submitter_institution>  (93) 
nan

$$$$
x0253_0_A_α-x1012_0_A_α
     RDKit          3D

 23 24  0  0  0  0  0  0  0  0999 V2000
    0.7260   11.6920   -5.2510 N   0  0  0  0  0  0  0  0  0  0  0  0
    1.1660   11.6070   -6.5350 C   0  0  0  0  0  0  0  0  0  0  0  0
    2.1410   12.2510   -6.7990 O   0  0  0  0  0  0  0  0  0  0  0  0
    1.4820   12.3960   -4.2150 C   0  0  0  0  0  0  0  0  0  0  0  0
    0.5980   12.6380   -3.0120 C   0  0  0  0  0  0  0  0  0  0  0  0
    0.5020   10.7230   -7.5300 C   0  0  0  0  0  0  0  0  0  0  0  0
    1.3710   12.9290   -1.8630 O   0  0  0  0  0  0  0  0  0  0  0  0
   -0.2020   11.4930   -2.7640 O   0  0  0  0  0  0  0  0  0  0  0  0
   -0.4800    9.8210   -7.1130 C   0  0  0  0  0  0  0  0  0  0  0  0
    0.8570   10.7830   -8.8830 C   0  0  0  0  0  0  0  0  0  0  0  0
   -0.0850   13.8640   -3.5840 C   0  0  0  0  0  0  0  0  0  0  0  0
   -1.1090    8.9830   -8.0450 C   0  0  0  0  0  0  0  0  0  0  0  0
    0.2360    9.9540   -9.8090 C   0  0  0  0  0  0  0  0  0  0  0  0
   -1.5150   14.2540   -3.2600 C   0  0  0  0  0  0  0  0  0  0  0  0
    0.8140   15.0850   -3.5460 C   0  0  0  0  0  0  0  0  0  0  0  0
   -2.1630    8.0170   -7.5960 C   0  0  0  0  0  0  0  0  0  0  0  0
   -0.7430    9.0580   -9.3930 C   0  0  0  0  0  0  0  0  0  0  0  0
   -1.9520   15.1320   -4.4440 C   0  0  0  0  0  0  0  0  0  0  0  0
    0.4930   15.7990   -4.8320 C   0  0  0  0  0  0  0  0  0  0  0  0
   -0.9290   16.1450   -4.8300 N   0  0  0  0  0  0  0  0  0  0  0  0
   -1.3150   17.4440   -4.8440 C   0  0  0  0  0  0  0  0  0  0  0  0
   -0.3240   18.3510   -4.7790 N   0  0  0  0  0  0  0  0  0  0  0  0
   -2.4540   17.8240   -4.8980 O   0  0  0  0  0  0  0  0  0  0  0  0
  1  2  1  0
  2  3  2  0
  1  4  1  0
  4  5  1  0
  2  6  1  0
  5  7  1  0
  5  8  1  0
  6  9  2  0
  6 10  1  0
  5 11  1  0
  9 12  1  0
 10 13  2  0
 11 14  1  0
 11 15  1  0
 12 16  1  0
 12 17  2  0
 13 17  1  0
 14 18  1  0
 15 19  1  0
 18 20  1  0
 19 20  1  0
 20 21  1  0
 21 22  1  0
 21 23  2  0
M  END
>  <comRMSD>  (94) 
0.396032

>  <∆∆G>  (94) 
-5.500847

>  <N_constrained_atoms>  (94) 
23.0

>  <LE>  (94) 
-0.239167

>  <ref_pdb>  (94) 
x0104_0

>  <ref_mols>  (94) 
x0253_0_A_α,x1012_0_A_α

>  <%Rank>  (94) 
1.595745

>  <generation_date>  (94) 
nan

>  <method>  (94) 
nan

>  <submitter_email>  (94) 
nan

>  <original SMILES>  (94) 
Cc1cccc(C(=O)NCC(O)(O)C2CCN(C(N)=O)CC2)c1

>  <ref_url>  (94) 
nan

>  <submitter_name>  (94) 
nan

>  <submitter_institution>  (94) 
nan

$$$$
x0950_0_A_α-x0591_0_A_α
     RDKit          3D

 21 21  0  0  0  0  0  0  0  0999 V2000
    2.7030   12.9700   -4.4210 C   0  0  0  0  0  0  0  0  0  0  0  0
    1.2010   12.8200   -4.2300 C   0  0  1  0  0  0  0  0  0  0  0  0
    0.6530   12.2930   -5.4210 O   0  0  0  0  0  0  0  0  0  0  0  0
    0.9170   12.0350   -2.9450 C   0  0  0  0  0  0  0  0  0  0  0  0
    0.3950   10.9320   -2.8950 O   0  0  0  0  0  0  0  0  0  0  0  0
    1.2840   12.6950   -1.8220 O   0  0  0  0  0  0  0  0  0  0  0  0
   -0.4350   13.0870   -5.8870 C   0  0  0  0  0  0  0  0  0  0  0  0
   -1.5630   13.2480   -4.9560 N   0  0  0  0  0  0  0  0  0  0  0  0
   -2.3420   14.5640   -4.9920 S   0  0  1  0  0  0  0  0  0  0  0  0
   -1.0970   15.6580   -4.7480 N   0  0  0  0  0  0  0  0  0  0  0  0
   -3.0180   15.1380   -6.1320 O   0  0  0  0  0  0  0  0  0  0  0  0
   -3.4440   14.6180   -3.6160 C   0  0  0  0  0  0  0  0  0  0  0  0
   -2.9870   14.4670   -2.3000 C   0  0  0  0  0  0  0  0  0  0  0  0
   -4.7900   14.8140   -3.8720 C   0  0  0  0  0  0  0  0  0  0  0  0
   -3.9070   14.5160   -1.2430 C   0  0  0  0  0  0  0  0  0  0  0  0
   -5.7040   14.8670   -2.8240 C   0  0  0  0  0  0  0  0  0  0  0  0
   -5.2710   14.7180   -1.5100 C   0  0  0  0  0  0  0  0  0  0  0  0
   -6.2560   14.7680   -0.3960 C   0  0  0  0  0  0  0  0  0  0  0  0
   -5.7800   14.5900    0.8800 N   0  0  0  0  0  0  0  0  0  0  0  0
   -7.4400   14.9570   -0.6430 O   0  0  0  0  0  0  0  0  0  0  0  0
   -6.7150   14.5230    1.9770 C   0  0  0  0  0  0  0  0  0  0  0  0
  2  1  1  6
  2  3  1  0
  2  4  1  0
  4  5  2  0
  4  6  1  0
  3  7  1  0
  7  8  1  0
  8  9  2  0
  9 10  1  1
  9 11  2  0
  9 12  1  0
 12 13  2  0
 12 14  1  0
 13 15  1  0
 14 16  2  0
 15 17  2  0
 16 17  1  0
 17 18  1  0
 18 19  1  0
 18 20  2  0
 19 21  1  0
M  END
>  <comRMSD>  (95) 
0.269314

>  <∆∆G>  (95) 
-7.051601

>  <N_constrained_atoms>  (95) 
20.0

>  <LE>  (95) 
-0.335791

>  <ref_pdb>  (95) 
x0104_0

>  <ref_mols>  (95) 
x0950_0_A_α,x0591_0_A_α

>  <%Rank>  (95) 
1.612903

>  <generation_date>  (95) 
nan

>  <method>  (95) 
nan

>  <submitter_email>  (95) 
nan

>  <original SMILES>  (95) 
CNC(=O)c1ccc(S(N)(=O)=NCO[C@H](C)C(=O)O)cc1

>  <ref_url>  (95) 
nan

>  <submitter_name>  (95) 
nan

>  <submitter_institution>  (95) 
nan

$$$$
x0290_0_A_α-x0855_0_A_α
     RDKit          3D

 25 26  0  0  0  0  0  0  0  0999 V2000
   -7.7520   13.8080    0.8130 N   0  0  0  0  0  0  0  0  0  0  0  0
   -8.6180   14.9740    0.7090 C   0  0  0  0  0  0  0  0  0  0  0  0
   -6.5300   14.0680    1.6050 C   0  0  0  0  0  0  0  0  0  0  0  0
   -5.2960   14.4360    0.7540 C   0  0  0  0  0  0  0  0  0  0  0  0
   -5.3040   14.4760   -0.4800 O   0  0  0  0  0  0  0  0  0  0  0  0
   -4.1160   14.7290    1.3800 N   0  0  0  0  0  0  0  0  0  0  0  0
   -2.8030   14.6420    0.9080 C   0  0  0  0  0  0  0  0  0  0  0  0
   -1.7800   14.5610    1.7760 N   0  0  0  0  0  0  0  0  0  0  0  0
   -2.5970   14.6370   -0.4750 C   0  0  0  0  0  0  0  0  0  0  0  0
   -0.5300   14.4780    1.2830 C   0  0  0  0  0  0  0  0  0  0  0  0
   -1.2850   14.5470   -0.9730 C   0  0  0  0  0  0  0  0  0  0  0  0
   -0.9860   14.5330   -2.4550 C   0  0  0  0  0  0  0  0  0  0  0  0
   -0.2340   14.4680   -0.0600 C   0  0  0  0  0  0  0  0  0  0  0  0
    0.3230   15.2540   -2.8320 C   0  0  0  0  0  0  0  0  0  0  0  0
    1.5550   14.3680   -3.0870 C   0  0  0  0  0  0  0  0  0  0  0  0
    1.4580   13.0620   -2.4950 O   0  0  0  0  0  0  0  0  0  0  0  0
    0.8860   12.0900   -3.2460 C   0  0  0  0  0  0  0  0  0  0  0  0
    0.6240   10.9670   -2.8150 O   0  0  0  0  0  0  0  0  0  0  0  0
    0.5800   12.4970   -4.6620 C   0  0  0  0  0  0  0  0  0  0  0  0
   -0.4660   11.6600   -5.1850 N   0  0  0  0  0  0  0  0  0  0  0  0
   -0.3500   10.7140   -6.1570 C   0  0  0  0  0  0  0  0  0  0  0  0
   -1.7190   11.7770   -4.6900 N   0  0  0  0  0  0  0  0  0  0  0  0
   -1.5990   10.1820   -6.2860 C   0  0  0  0  0  0  0  0  0  0  0  0
   -2.4080   10.8620   -5.3730 C   0  0  0  0  0  0  0  0  0  0  0  0
   -2.1480    8.8220   -7.4360 Br  0  0  0  0  0  0  0  0  0  0  0  0
  1  2  1  0
  1  3  1  0
  3  4  1  0
  4  5  2  0
  4  6  1  0
  6  7  1  0
  7  8  2  0
  7  9  1  0
  8 10  1  0
  9 11  2  0
 11 12  1  0
 10 13  2  0
 11 13  1  0
 12 14  1  0
 14 15  1  0
 15 16  1  0
 16 17  1  0
 17 18  2  0
 17 19  1  0
 19 20  1  0
 20 21  1  0
 20 22  1  0
 21 23  2  0
 22 24  2  0
 23 24  1  0
 23 25  1  0
M  END
>  <comRMSD>  (96) 
0.250321

>  <∆∆G>  (96) 
-9.349612

>  <N_constrained_atoms>  (96) 
23.0

>  <LE>  (96) 
-0.373984

>  <ref_pdb>  (96) 
x0104_0

>  <ref_mols>  (96) 
x0290_0_A_α,x0855_0_A_α

>  <%Rank>  (96) 
1.630062

>  <generation_date>  (96) 
nan

>  <method>  (96) 
nan

>  <submitter_email>  (96) 
nan

>  <original SMILES>  (96) 
CNCC(=O)Nc1cc(CCCOC(=O)Cn2cc(Br)cn2)ccn1

>  <ref_url>  (96) 
nan

>  <submitter_name>  (96) 
nan

>  <submitter_institution>  (96) 
nan

$$$$
x0290_0_A_α-x0727_0_A_α
     RDKit          3D

 28 29  0  0  0  0  0  0  0  0999 V2000
   -7.7690   13.8500    0.8710 N   0  0  0  0  0  0  0  0  0  0  0  0
   -8.6520   14.9900    0.7280 C   0  0  0  0  0  0  0  0  0  0  0  0
   -6.6110   14.1540    1.7340 C   0  0  0  0  0  0  0  0  0  0  0  0
   -5.3800   14.4770    0.8760 C   0  0  0  0  0  0  0  0  0  0  0  0
   -5.4700   14.5190   -0.3570 O   0  0  0  0  0  0  0  0  0  0  0  0
   -4.1620   14.7140    1.4340 N   0  0  0  0  0  0  0  0  0  0  0  0
   -2.8970   14.6920    0.8690 C   0  0  0  0  0  0  0  0  0  0  0  0
   -1.8430   14.6170    1.7260 N   0  0  0  0  0  0  0  0  0  0  0  0
   -2.7280   14.7380   -0.4880 C   0  0  0  0  0  0  0  0  0  0  0  0
   -0.5980   14.5900    1.1840 C   0  0  0  0  0  0  0  0  0  0  0  0
   -1.4530   14.7090   -1.0340 C   0  0  0  0  0  0  0  0  0  0  0  0
   -1.3570   14.7570   -2.5320 C   0  0  0  0  0  0  0  0  0  0  0  0
   -0.3510   14.6350   -0.1790 C   0  0  0  0  0  0  0  0  0  0  0  0
   -0.0220   15.1250   -3.1440 C   0  0  0  0  0  0  0  0  0  0  0  0
    0.0090   14.7850   -4.6300 C   0  0  0  0  0  0  0  0  0  0  0  0
    1.1420   13.8880   -5.0850 C   0  0  0  0  0  0  0  0  0  0  0  0
    1.0880   12.3850   -4.8030 C   0  0  2  0  0  0  0  0  0  0  0  0
    0.1510   11.6510   -5.6610 N   0  0  0  0  0  0  0  0  0  0  0  0
    0.8400   11.9510   -3.3590 C   0  0  0  0  0  0  0  0  0  0  0  0
    0.2470   10.9380   -3.0240 O   0  0  0  0  0  0  0  0  0  0  0  0
    0.6540   11.1430   -6.8220 C   0  0  0  0  0  0  0  0  0  0  0  0
    1.3510   12.7720   -2.4340 O   0  0  0  0  0  0  0  0  0  0  0  0
    1.6540   11.6190   -7.2840 O   0  0  0  0  0  0  0  0  0  0  0  0
   -0.0220    9.9540   -7.4870 C   0  0  0  0  0  0  0  0  0  0  0  0
   -1.3210   10.3020   -8.2050 C   0  0  0  0  0  0  0  0  0  0  0  0
   -0.3620    8.8260   -6.4990 C   0  0  0  0  0  0  0  0  0  0  0  0
   -2.2170    9.0980   -7.9890 C   0  0  0  0  0  0  0  0  0  0  0  0
   -1.8580    8.6130   -6.5980 C   0  0  0  0  0  0  0  0  0  0  0  0
  1  2  1  0
  1  3  1  0
  3  4  1  0
  4  5  2  0
  4  6  1  0
  6  7  1  0
  7  8  2  0
  7  9  1  0
  8 10  1  0
  9 11  2  0
 11 12  1  0
 10 13  2  0
 11 13  1  0
 12 14  1  0
 14 15  1  0
 15 16  1  0
 17 16  1  1
 17 18  1  0
 17 19  1  0
 19 20  2  0
 18 21  1  0
 19 22  1  0
 21 23  2  0
 21 24  1  0
 24 25  1  0
 24 26  1  0
 25 27  1  0
 26 28  1  0
 27 28  1  0
M  END
>  <comRMSD>  (97) 
0.28382

>  <∆∆G>  (97) 
-8.386367

>  <N_constrained_atoms>  (97) 
26.0

>  <LE>  (97) 
-0.299513

>  <ref_pdb>  (97) 
x0104_0

>  <ref_mols>  (97) 
x0290_0_A_α,x0727_0_A_α

>  <%Rank>  (97) 
1.64722

>  <generation_date>  (97) 
nan

>  <method>  (97) 
nan

>  <submitter_email>  (97) 
nan

>  <original SMILES>  (97) 
CNCC(=O)Nc1cc(CCCC[C@H](NC(=O)C2CCCC2)C(=O)O)ccn1

>  <ref_url>  (97) 
nan

>  <submitter_name>  (97) 
nan

>  <submitter_institution>  (97) 
nan

$$$$
x1012_0_A_α-x0290_0_A_α
     RDKit          3D

 25 26  0  0  0  0  0  0  0  0999 V2000
   -0.3320   18.2990   -4.6260 N   0  0  0  0  0  0  0  0  0  0  0  0
   -1.1980   17.2920   -4.8310 C   0  0  0  0  0  0  0  0  0  0  0  0
   -2.3960   17.5370   -4.8460 O   0  0  0  0  0  0  0  0  0  0  0  0
   -0.6480   16.0410   -4.9670 N   0  0  0  0  0  0  0  0  0  0  0  0
   -1.5150   14.9740   -4.4970 C   0  0  0  0  0  0  0  0  0  0  0  0
    0.8300   15.8420   -4.9270 C   0  0  0  0  0  0  0  0  0  0  0  0
   -0.8550   14.3790   -3.2820 C   0  0  1  0  0  0  0  0  0  0  0  0
    1.3940   14.6140   -4.1720 C   0  0  0  0  0  0  0  0  0  0  0  0
   -1.7580   13.5590   -2.3930 C   0  0  0  0  0  0  0  0  0  0  0  0
    0.3320   13.5910   -3.7860 C   0  0  1  0  0  0  0  0  0  0  0  0
    0.7620   12.5860   -2.7380 C   0  0  0  0  0  0  0  0  0  0  0  0
   -1.6970   13.9950   -0.9590 C   0  0  0  0  0  0  0  0  0  0  0  0
    0.2940   11.3340   -2.9170 O   0  0  0  0  0  0  0  0  0  0  0  0
    1.4650   12.8340   -1.7840 O   0  0  0  0  0  0  0  0  0  0  0  0
   -0.5280   14.1620   -0.2080 C   0  0  0  0  0  0  0  0  0  0  0  0
   -2.9140   14.2340   -0.3580 C   0  0  0  0  0  0  0  0  0  0  0  0
   -0.6710   14.5550    1.1140 C   0  0  0  0  0  0  0  0  0  0  0  0
   -2.9830   14.6170    0.9440 C   0  0  0  0  0  0  0  0  0  0  0  0
   -4.2160   14.8420    1.5250 N   0  0  0  0  0  0  0  0  0  0  0  0
   -1.8730   14.7830    1.7070 N   0  0  0  0  0  0  0  0  0  0  0  0
   -5.4420   14.6170    0.9880 C   0  0  0  0  0  0  0  0  0  0  0  0
   -5.5800   14.7370   -0.2380 O   0  0  0  0  0  0  0  0  0  0  0  0
   -6.6510   14.2010    1.8280 C   0  0  0  0  0  0  0  0  0  0  0  0
   -7.7810   13.8520    0.9510 N   0  0  0  0  0  0  0  0  0  0  0  0
   -8.6420   15.0030    0.7290 C   0  0  0  0  0  0  0  0  0  0  0  0
  1  2  1  0
  2  3  2  0
  2  4  1  0
  4  5  1  0
  4  6  1  0
  5  7  1  0
  6  8  1  0
  7  9  1  6
  7 10  1  0
  8 10  1  0
 10 11  1  1
  9 12  1  0
 11 13  1  0
 11 14  2  0
 12 15  2  0
 12 16  1  0
 15 17  1  0
 16 18  2  0
 18 19  1  0
 17 20  2  0
 18 20  1  0
 19 21  1  0
 21 22  2  0
 21 23  1  0
 23 24  1  0
 24 25  1  0
M  END
>  <comRMSD>  (98) 
0.49945

>  <∆∆G>  (98) 
-9.30798

>  <N_constrained_atoms>  (98) 
25.0

>  <LE>  (98) 
-0.372319

>  <ref_pdb>  (98) 
x0104_0

>  <ref_mols>  (98) 
x1012_0_A_α,x0290_0_A_α

>  <%Rank>  (98) 
1.664379

>  <generation_date>  (98) 
nan

>  <method>  (98) 
nan

>  <submitter_email>  (98) 
nan

>  <original SMILES>  (98) 
CNCC(=O)Nc1cc(CC2CN(C(N)=O)CCC2C(=O)O)ccn1

>  <ref_url>  (98) 
nan

>  <submitter_name>  (98) 
nan

>  <submitter_institution>  (98) 
nan

$$$$
x0253_0_A_α-x0421_0_A_α
     RDKit          3D

 27 29  0  0  0  0  0  0  0  0999 V2000
    0.3010   11.9350   -5.3780 N   0  0  0  0  0  0  0  0  0  0  0  0
    1.0520   11.6640   -6.5010 C   0  0  0  0  0  0  0  0  0  0  0  0
    2.1650   12.1240   -6.6510 O   0  0  0  0  0  0  0  0  0  0  0  0
    0.8170   12.8280   -4.3510 C   0  0  0  0  0  0  0  0  0  0  0  0
    0.7560   12.1520   -2.9840 C   0  0  0  0  0  0  0  0  0  0  0  0
    0.4430   10.7370   -7.5130 C   0  0  0  0  0  0  0  0  0  0  0  0
    0.8660   12.7980   -1.8820 N   0  0  0  0  0  0  0  0  0  0  0  0
    0.5670   10.8220   -2.9800 O   0  0  0  0  0  0  0  0  0  0  0  0
   -0.5350    9.8160   -7.1270 C   0  0  0  0  0  0  0  0  0  0  0  0
    0.8450   10.7770   -8.8590 C   0  0  0  0  0  0  0  0  0  0  0  0
    1.0220   14.2480   -1.8470 C   0  0  0  0  0  0  0  0  0  0  0  0
   -1.1070    8.9500   -8.0640 C   0  0  0  0  0  0  0  0  0  0  0  0
    0.2800    9.9160   -9.7930 C   0  0  0  0  0  0  0  0  0  0  0  0
   -2.1590    7.9650   -7.6460 C   0  0  0  0  0  0  0  0  0  0  0  0
   -0.2450   14.8610   -1.2060 C   0  0  0  0  0  0  0  0  0  0  0  0
   -0.6930    9.0060   -9.4000 C   0  0  0  0  0  0  0  0  0  0  0  0
   -1.3840   14.9480   -2.1670 N   0  0  0  0  0  0  0  0  0  0  0  0
   -2.6670   14.9820   -1.8880 C   0  0  0  0  0  0  0  0  0  0  0  0
   -3.5860   15.0770   -2.8950 N   0  0  0  0  0  0  0  0  0  0  0  0
   -3.3470   14.9240   -0.5990 C   0  0  0  0  0  0  0  0  0  0  0  0
   -2.7390   14.9530    0.6310 C   0  0  0  0  0  0  0  0  0  0  0  0
   -4.7250   14.8250   -0.4580 N   0  0  0  0  0  0  0  0  0  0  0  0
   -3.7550   14.8650    1.5270 N   0  0  0  0  0  0  0  0  0  0  0  0
   -4.9270   14.7890    0.8410 C   0  0  0  0  0  0  0  0  0  0  0  0
   -6.3030   14.6700    1.5570 C   0  0  0  0  0  0  0  0  0  0  0  0
   -7.5740   14.6630    0.7460 C   0  0  0  0  0  0  0  0  0  0  0  0
   -7.0980   13.4000    1.4020 C   0  0  0  0  0  0  0  0  0  0  0  0
  1  2  1  0
  2  3  2  0
  1  4  1  0
  4  5  1  0
  2  6  1  0
  5  7  2  3
  5  8  1  0
  6  9  2  0
  6 10  1  0
  7 11  1  0
  9 12  1  0
 10 13  2  0
 12 14  1  0
 11 15  1  0
 12 16  2  0
 13 16  1  0
 15 17  1  0
 17 18  2  3
 18 19  1  0
 18 20  1  0
 20 21  2  0
 20 22  1  0
 21 23  1  0
 22 24  2  0
 23 24  1  0
 24 25  1  0
 25 26  1  0
 25 27  1  0
 26 27  1  0
M  END
>  <comRMSD>  (99) 
0.276412

>  <∆∆G>  (99) 
-8.731229

>  <N_constrained_atoms>  (99) 
25.0

>  <LE>  (99) 
-0.323379

>  <ref_pdb>  (99) 
x0104_0

>  <ref_mols>  (99) 
x0253_0_A_α,x0421_0_A_α

>  <%Rank>  (99) 
1.681537

>  <generation_date>  (99) 
nan

>  <method>  (99) 
nan

>  <submitter_email>  (99) 
nan

>  <original SMILES>  (99) 
Cc1cccc(C(=O)NCC(O)=NCCN=C(N)c2c[nH]c(C3CC3)n2)c1

>  <ref_url>  (99) 
nan

>  <submitter_name>  (99) 
nan

>  <submitter_institution>  (99) 
nan

$$$$
x0727_0_A_α-x0722_0_A_α
     RDKit          3D

 27 28  0  0  0  0  0  0  0  0999 V2000
    0.1250   11.4140   -5.6010 N   0  0  0  0  0  0  0  0  0  0  0  0
    0.9020   12.3390   -4.7800 C   0  0  1  0  0  0  0  0  0  0  0  0
    0.4440   13.7680   -5.0110 C   0  0  0  0  0  0  0  0  0  0  0  0
    0.6820   11.0860   -6.8120 C   0  0  0  0  0  0  0  0  0  0  0  0
    1.6300   11.7000   -7.2290 O   0  0  0  0  0  0  0  0  0  0  0  0
    0.7710   11.9530   -3.3020 C   0  0  0  0  0  0  0  0  0  0  0  0
    0.0630    9.9060   -7.5490 C   0  0  0  0  0  0  0  0  0  0  0  0
    0.1680   10.9660   -2.8770 O   0  0  0  0  0  0  0  0  0  0  0  0
    1.4310   12.8580   -2.5290 O   0  0  0  0  0  0  0  0  0  0  0  0
   -1.2460   10.2840   -8.2400 C   0  0  0  0  0  0  0  0  0  0  0  0
   -0.2720    8.7440   -6.5910 C   0  0  0  0  0  0  0  0  0  0  0  0
    0.6720   13.3860   -1.4360 C   0  0  0  0  0  0  0  0  0  0  0  0
   -2.1920    9.1120   -8.0250 C   0  0  0  0  0  0  0  0  0  0  0  0
   -1.7610    8.4800   -6.7140 C   0  0  0  0  0  0  0  0  0  0  0  0
   -0.2070   14.5290   -1.9180 C   0  0  0  0  0  0  0  0  0  0  0  0
   -1.7030   14.2320   -1.7500 C   0  0  0  0  0  0  0  0  0  0  0  0
   -2.2540   14.6300   -0.4220 C   0  0  0  0  0  0  0  0  0  0  0  0
   -3.5070   15.1450   -0.0810 C   0  0  0  0  0  0  0  0  0  0  0  0
   -1.5570   14.5560    0.7700 N   0  0  0  0  0  0  0  0  0  0  0  0
   -0.2190   14.1150    1.0440 C   0  0  0  0  0  0  0  0  0  0  0  0
   -4.6890   15.4550   -0.9510 C   0  0  0  0  0  0  0  0  0  0  0  0
   -2.2470   14.9630    1.8020 N   0  0  0  0  0  0  0  0  0  0  0  0
   -3.4090   15.3280    1.3140 C   0  0  0  0  0  0  0  0  0  0  0  0
   -4.3780   15.8630    2.2480 C   0  0  0  0  0  0  0  0  0  0  0  0
   -5.9460   14.6910   -0.5620 C   0  0  0  0  0  0  0  0  0  0  0  0
   -7.0850   15.1200   -0.7260 O   0  0  0  0  0  0  0  0  0  0  0  0
   -5.7570   13.4640    0.0090 N   0  0  0  0  0  0  0  0  0  0  0  0
  1  2  1  0
  2  3  1  1
  1  4  1  0
  4  5  2  0
  2  6  1  0
  4  7  1  0
  6  8  2  0
  6  9  1  0
  7 10  1  0
  7 11  1  0
  9 12  1  0
 10 13  1  0
 11 14  1  0
 13 14  1  0
 12 15  1  0
 15 16  1  0
 16 17  1  0
 17 18  2  0
 17 19  1  0
 19 20  1  0
 18 21  1  0
 19 22  1  0
 18 23  1  0
 22 23  2  0
 23 24  1  0
 21 25  1  0
 25 26  2  0
 25 27  1  0
M  END
>  <comRMSD>  (100) 
0.275705

>  <∆∆G>  (100) 
-8.600652

>  <N_constrained_atoms>  (100) 
25.0

>  <LE>  (100) 
-0.318543

>  <ref_pdb>  (100) 
x0104_0

>  <ref_mols>  (100) 
x0727_0_A_α,x0722_0_A_α

>  <%Rank>  (100) 
1.698696

>  <generation_date>  (100) 
nan

>  <method>  (100) 
nan

>  <submitter_email>  (100) 
nan

>  <original SMILES>  (100) 
Cc1nn(C)c(CCCOC(=O)[C@H](C)NC(=O)C2CCCC2)c1CC(N)=O

>  <ref_url>  (100) 
nan

>  <submitter_name>  (100) 
nan

>  <submitter_institution>  (100) 
nan

$$$$
x0421_0_A_α-x0628_0_A_α
     RDKit          3D

 25 27  0  0  0  0  0  0  0  0999 V2000
   -3.9260   15.3690   -2.7870 N   0  0  0  0  0  0  0  0  0  0  0  0
   -3.0190   14.9870   -1.8440 C   0  0  0  0  0  0  0  0  0  0  0  0
   -1.8030   14.7250   -2.1530 N   0  0  0  0  0  0  0  0  0  0  0  0
   -3.6040   14.9310   -0.5190 C   0  0  0  0  0  0  0  0  0  0  0  0
   -1.3340   14.8290   -3.5380 C   0  0  0  0  0  0  0  0  0  0  0  0
   -2.9250   15.0240    0.6820 C   0  0  0  0  0  0  0  0  0  0  0  0
   -4.9610   14.7700   -0.2960 N   0  0  0  0  0  0  0  0  0  0  0  0
   -2.2140   13.9300   -4.4080 C   0  0  0  0  0  0  0  0  0  0  0  0
   -3.8840   14.9180    1.6430 N   0  0  0  0  0  0  0  0  0  0  0  0
   -5.0840   14.7650    1.0120 C   0  0  0  0  0  0  0  0  0  0  0  0
   -2.1430   12.4430   -4.0630 C   0  0  0  0  0  0  0  0  0  0  0  0
   -6.4270   14.6040    1.7630 C   0  0  0  0  0  0  0  0  0  0  0  0
   -7.7130   14.6510    0.9840 C   0  0  0  0  0  0  0  0  0  0  0  0
   -7.2380   13.3550    1.5660 C   0  0  0  0  0  0  0  0  0  0  0  0
   -1.4310   11.6270   -5.0790 C   0  0  0  0  0  0  0  0  0  0  0  0
   -1.8530   10.4780   -5.5830 N   0  0  0  0  0  0  0  0  0  0  0  0
   -0.2220   11.9390   -5.6570 N   0  0  0  0  0  0  0  0  0  0  0  0
    0.6420   13.0840   -5.4500 C   0  0  0  0  0  0  0  0  0  0  0  0
   -0.8650   10.1320   -6.4630 C   0  0  0  0  0  0  0  0  0  0  0  0
    0.1460   10.9990   -6.5400 N   0  0  0  0  0  0  0  0  0  0  0  0
   -0.9090    8.9000   -7.2660 C   0  0  0  0  0  0  0  0  0  0  0  0
    1.6580   12.9580   -4.3160 C   0  0  0  0  0  0  0  0  0  0  0  0
    1.1620   12.2740   -3.0670 C   0  0  0  0  0  0  0  0  0  0  0  0
    0.4630   11.2730   -3.0200 O   0  0  0  0  0  0  0  0  0  0  0  0
    1.5710   12.9080   -1.9580 O   0  0  0  0  0  0  0  0  0  0  0  0
  1  2  1  0
  2  3  2  3
  2  4  1  0
  3  5  1  0
  4  6  2  0
  4  7  1  0
  5  8  1  0
  6  9  1  0
  7 10  2  0
  9 10  1  0
  8 11  1  0
 10 12  1  0
 12 13  1  0
 12 14  1  0
 13 14  1  0
 11 15  1  0
 15 16  2  0
 15 17  1  0
 17 18  1  0
 16 19  1  0
 17 20  1  0
 19 20  2  0
 19 21  1  0
 18 22  1  0
 22 23  1  0
 23 24  2  0
 23 25  1  0
M  END
>  <comRMSD>  (101) 
0.218454

>  <∆∆G>  (101) 
-7.503837

>  <N_constrained_atoms>  (101) 
23.0

>  <LE>  (101) 
-0.300153

>  <ref_pdb>  (101) 
x0104_0

>  <ref_mols>  (101) 
x0421_0_A_α,x0628_0_A_α

>  <%Rank>  (101) 
1.715854

>  <generation_date>  (101) 
nan

>  <method>  (101) 
nan

>  <submitter_email>  (101) 
nan

>  <original SMILES>  (101) 
Cc1nc(CCCN=C(N)c2c[nH]c(C3CC3)n2)n(CCC(=O)O)n1

>  <ref_url>  (101) 
nan

>  <submitter_name>  (101) 
nan

>  <submitter_institution>  (101) 
nan

$$$$
x0805_0_A_α-EU0056_0_A_α
     RDKit          3D

 16 17  0  0  0  0  0  0  0  0999 V2000
   -3.4090   15.4820   -0.2940 O   0  0  0  0  0  0  0  0  0  0  0  0
   -4.0120   15.0390    0.9270 C   0  0  0  0  0  0  0  0  0  0  0  0
   -5.5120   14.8700    0.8970 C   0  0  0  0  0  0  0  0  0  0  0  0
   -3.2250   14.5980   -1.3260 C   0  0  0  0  0  0  0  0  0  0  0  0
   -4.1600   13.6790   -1.7970 C   0  0  0  0  0  0  0  0  0  0  0  0
   -1.9710   14.6570   -1.9440 C   0  0  0  0  0  0  0  0  0  0  0  0
   -1.6560   13.8230   -3.0130 C   0  0  0  0  0  0  0  0  0  0  0  0
   -3.8440   12.8390   -2.8690 C   0  0  0  0  0  0  0  0  0  0  0  0
   -6.2470   14.6960   -0.2710 C   0  0  0  0  0  0  0  0  0  0  0  0
   -6.2360   14.8910    2.0940 C   0  0  0  0  0  0  0  0  0  0  0  0
   -2.5960   12.9130   -3.4760 C   0  0  0  0  0  0  0  0  0  0  0  0
   -7.6290   14.7450    2.1030 C   0  0  0  0  0  0  0  0  0  0  0  0
   -7.5950   14.5440   -0.3030 N   0  0  0  0  0  0  0  0  0  0  0  0
   -8.4170   14.7810    3.3810 C   0  0  0  0  0  0  0  0  0  0  0  0
   -8.2500   14.5730    0.8760 C   0  0  0  0  0  0  0  0  0  0  0  0
   -8.2090   13.5900    4.1880 N   0  0  0  0  0  0  0  0  0  0  0  0
  1  2  1  0
  2  3  1  0
  1  4  1  0
  4  5  2  0
  4  6  1  0
  6  7  2  0
  5  8  1  0
  3  9  2  0
  3 10  1  0
  7 11  1  0
  8 11  2  0
 10 12  2  0
  9 13  1  0
 12 14  1  0
 12 15  1  0
 13 15  2  0
 14 16  1  0
M  END
>  <comRMSD>  (102) 
0.240556

>  <∆∆G>  (102) 
-2.856227

>  <N_constrained_atoms>  (102) 
16.0

>  <LE>  (102) 
-0.178514

>  <ref_pdb>  (102) 
x0104_0

>  <ref_mols>  (102) 
x0805_0_A_α

>  <%Rank>  (102) 
1.733013

>  <generation_date>  (102) 
nan

>  <method>  (102) 
nan

>  <submitter_email>  (102) 
nan

>  <original SMILES>  (102) 
NCc1cncc(COc2ccccc2)c1

>  <ref_url>  (102) 
nan

>  <submitter_name>  (102) 
nan

>  <submitter_institution>  (102) 
nan

$$$$
x0855_0_A_α-x0290_0_A_α
     RDKit          3D

 25 26  0  0  0  0  0  0  0  0999 V2000
    1.9620   12.8570   -2.7090 O   0  0  0  0  0  0  0  0  0  0  0  0
    1.0440   12.1120   -3.3450 C   0  0  0  0  0  0  0  0  0  0  0  0
    0.5930   12.6880   -4.6680 C   0  0  2  0  0  0  0  0  0  0  0  0
    0.6660   11.0690   -2.8360 O   0  0  0  0  0  0  0  0  0  0  0  0
    0.1850   14.1800   -4.5530 C   0  0  0  0  0  0  0  0  0  0  0  0
   -0.4520   11.8100   -5.1670 N   0  0  0  0  0  0  0  0  0  0  0  0
    0.0480   14.7080   -3.1050 C   0  0  0  0  0  0  0  0  0  0  0  0
   -0.3140   10.8360   -6.1190 C   0  0  0  0  0  0  0  0  0  0  0  0
   -1.7090   11.9020   -4.6780 N   0  0  0  0  0  0  0  0  0  0  0  0
   -1.3680   14.5260   -2.5300 C   0  0  0  0  0  0  0  0  0  0  0  0
   -1.5520   10.2660   -6.2370 C   0  0  0  0  0  0  0  0  0  0  0  0
   -2.3780   10.9510   -5.3390 C   0  0  0  0  0  0  0  0  0  0  0  0
   -2.0740    8.8650   -7.3490 Br  0  0  0  0  0  0  0  0  0  0  0  0
   -1.4680   14.5460   -1.0180 C   0  0  0  0  0  0  0  0  0  0  0  0
   -0.3370   14.4600   -0.1990 C   0  0  0  0  0  0  0  0  0  0  0  0
   -2.7210   14.6520   -0.3970 C   0  0  0  0  0  0  0  0  0  0  0  0
   -0.5150   14.4760    1.1720 C   0  0  0  0  0  0  0  0  0  0  0  0
   -2.8040   14.6620    0.9950 C   0  0  0  0  0  0  0  0  0  0  0  0
   -4.0790   14.7690    1.5660 N   0  0  0  0  0  0  0  0  0  0  0  0
   -1.7180   14.5690    1.7690 N   0  0  0  0  0  0  0  0  0  0  0  0
   -5.2620   14.4200    0.9360 C   0  0  0  0  0  0  0  0  0  0  0  0
   -5.4570   14.3120   -0.2710 O   0  0  0  0  0  0  0  0  0  0  0  0
   -6.3990   14.1540    1.9370 C   0  0  0  0  0  0  0  0  0  0  0  0
   -7.6470   13.7360    1.2700 N   0  0  0  0  0  0  0  0  0  0  0  0
   -8.4600   14.8300    0.7570 C   0  0  0  0  0  0  0  0  0  0  0  0
  1  2  1  0
  2  3  1  0
  2  4  2  0
  3  5  1  1
  3  6  1  0
  5  7  1  0
  6  8  1  0
  6  9  1  0
  7 10  1  0
  8 11  2  0
  9 12  2  0
 11 12  1  0
 11 13  1  0
 10 14  1  0
 14 15  2  0
 14 16  1  0
 15 17  1  0
 16 18  2  0
 18 19  1  0
 17 20  2  0
 18 20  1  0
 19 21  1  0
 21 22  2  0
 21 23  1  0
 23 24  1  0
 24 25  1  0
M  END
>  <comRMSD>  (103) 
0.202959

>  <∆∆G>  (103) 
-6.655349

>  <N_constrained_atoms>  (103) 
23.0

>  <LE>  (103) 
-0.266214

>  <ref_pdb>  (103) 
x0104_0

>  <ref_mols>  (103) 
x0855_0_A_α,x0290_0_A_α

>  <%Rank>  (103) 
1.750172

>  <generation_date>  (103) 
nan

>  <method>  (103) 
nan

>  <submitter_email>  (103) 
nan

>  <original SMILES>  (103) 
CNCC(=O)Nc1cc(CCCC(C(=O)O)n2cc(Br)cn2)ccn1

>  <ref_url>  (103) 
nan

>  <submitter_name>  (103) 
nan

>  <submitter_institution>  (103) 
nan

$$$$
5CMS_0_A_γ-x0290_0_A_α
     RDKit          3D

 20 21  0  0  0  0  0  0  0  0999 V2000
   -0.3410   12.2430   -3.2040 O   0  0  0  0  0  0  0  0  0  0  0  0
   -1.0320   13.3780   -3.7220 C   0  0  1  0  0  0  0  0  0  0  0  0
   -1.1700   14.6110   -2.7580 C   0  0  2  0  0  0  0  0  0  0  0  0
   -0.2250   13.9600   -4.9010 C   0  0  2  0  0  0  0  0  0  0  0  0
    1.1180   13.4450   -4.8720 O   0  0  0  0  0  0  0  0  0  0  0  0
   -0.1680   15.5390   -3.2040 O   0  0  0  0  0  0  0  0  0  0  0  0
   -0.2810   15.4650   -4.6240 C   0  0  1  0  0  0  0  0  0  0  0  0
   -1.3180   14.5660   -1.2180 C   0  0  0  0  0  0  0  0  0  0  0  0
    0.7620   16.3560   -5.2770 C   0  0  0  0  0  0  0  0  0  0  0  0
   -0.2470   14.5150   -0.3110 C   0  0  0  0  0  0  0  0  0  0  0  0
   -2.6120   14.5940   -0.6500 C   0  0  0  0  0  0  0  0  0  0  0  0
   -0.5220   14.4970    1.0610 C   0  0  0  0  0  0  0  0  0  0  0  0
   -2.8080   14.5730    0.7280 C   0  0  0  0  0  0  0  0  0  0  0  0
   -4.0700   14.6010    1.3290 N   0  0  0  0  0  0  0  0  0  0  0  0
   -1.7660   14.5260    1.5980 N   0  0  0  0  0  0  0  0  0  0  0  0
   -5.3280   14.4290    0.8420 C   0  0  0  0  0  0  0  0  0  0  0  0
   -5.4850   14.5360   -0.3800 O   0  0  0  0  0  0  0  0  0  0  0  0
   -6.5370   14.0950    1.7140 C   0  0  0  0  0  0  0  0  0  0  0  0
   -7.7530   13.8070    0.9200 N   0  0  0  0  0  0  0  0  0  0  0  0
   -8.5930   14.9800    0.7260 C   0  0  0  0  0  0  0  0  0  0  0  0
  2  1  1  1
  2  3  1  0
  2  4  1  0
  4  5  1  1
  3  6  1  0
  4  7  1  0
  6  7  1  0
  3  8  1  1
  7  9  1  6
  8 10  2  0
  8 11  1  0
 10 12  1  0
 11 13  2  0
 13 14  1  0
 12 15  2  0
 13 15  1  0
 14 16  1  0
 16 17  2  0
 16 18  1  0
 18 19  1  0
 19 20  1  0
M  END
>  <comRMSD>  (104) 
0.433265

>  <∆∆G>  (104) 
-7.933756

>  <N_constrained_atoms>  (104) 
20.0

>  <LE>  (104) 
-0.396688

>  <ref_pdb>  (104) 
x0104_0

>  <ref_mols>  (104) 
x0290_0_A_α

>  <%Rank>  (104) 
1.76733

>  <generation_date>  (104) 
nan

>  <method>  (104) 
nan

>  <submitter_email>  (104) 
nan

>  <original SMILES>  (104) 
CNCC(=O)Nc1cc(C2OC(C)C(O)C2O)ccn1

>  <ref_url>  (104) 
nan

>  <submitter_name>  (104) 
nan

>  <submitter_institution>  (104) 
nan

$$$$
5cb5_N_0_N_γ-1hjz_A_0_A_α
     RDKit          3D

 21 22  0  0  0  0  0  0  0  0999 V2000
   -0.8640   12.8770   -4.1560 O   0  0  0  0  0  0  0  0  0  0  0  0
   -0.8510   14.3080   -4.3070 C   0  0  1  0  0  0  0  0  0  0  0  0
   -0.5580   14.9920   -2.9950 C   0  0  0  0  0  0  0  0  0  0  0  0
    0.3630   14.7310   -5.1280 C   0  0  2  0  0  0  0  0  0  0  0  0
    1.3860   13.7490   -5.0750 O   0  0  0  0  0  0  0  0  0  0  0  0
   -0.0620   16.2800   -3.3890 O   0  0  0  0  0  0  0  0  0  0  0  0
    0.7980   16.0780   -4.5130 C   0  0  2  0  0  0  0  0  0  0  0  0
    0.8330   17.3180   -5.4470 C   0  0  0  0  0  0  0  0  0  0  0  0
   -0.4900   17.9700   -5.8690 C   0  0  0  0  0  0  0  0  0  0  0  0
   -0.2310   19.3380   -6.2070 O   0  0  0  0  0  0  0  0  0  0  0  0
   -0.0180   19.8740   -7.7400 S   0  0  0  0  0  0  0  0  0  0  0  0
    0.9080   20.9930   -7.6920 O   0  0  0  0  0  0  0  0  0  0  0  0
    0.2040   18.7500   -8.6390 O   0  0  0  0  0  0  0  0  0  0  0  0
   -1.6430   20.5100   -8.0560 C   0  0  0  0  0  0  0  0  0  0  0  0
   -1.9780   21.7990   -7.3450 C   0  0  0  0  0  0  0  0  0  0  0  0
   -3.3710   22.2210   -7.5930 N   0  0  0  0  0  0  0  0  0  0  0  0
   -3.5840   22.6450   -8.9840 C   0  0  0  0  0  0  0  0  0  0  0  0
   -3.7970   23.3580   -6.7480 C   0  0  0  0  0  0  0  0  0  0  0  0
   -5.0130   23.0910   -9.2900 C   0  0  0  0  0  0  0  0  0  0  0  0
   -5.2210   23.8180   -7.0590 C   0  0  0  0  0  0  0  0  0  0  0  0
   -5.3810   24.1760   -8.4360 O   0  0  0  0  0  0  0  0  0  0  0  0
  2  1  1  1
  2  3  1  0
  2  4  1  0
  4  5  1  1
  3  6  1  0
  4  7  1  0
  6  7  1  0
  7  8  1  6
  8  9  1  0
  9 10  1  0
 11 10  1  0
 11 12  2  0
 11 13  2  0
 11 14  1  0
 14 15  1  0
 15 16  1  0
 16 17  1  0
 16 18  1  0
 17 19  1  0
 18 20  1  0
 19 21  1  0
 20 21  1  0
M  END
>  <comRMSD>  (105) 
0.396377

>  <∆∆G>  (105) 
-12.01903

>  <N_constrained_atoms>  (105) 
20.0

>  <LE>  (105) 
-0.572335

>  <ref_pdb>  (105) 
x0104_0

>  <ref_mols>  (105) 


>  <%Rank>  (105) 
1.784489

>  <generation_date>  (105) 
nan

>  <method>  (105) 
nan

>  <submitter_email>  (105) 
nan

>  <original SMILES>  (105) 
O=S(=O)(CCN1CCOCC1)OCCC1OCC(O)C1O

>  <ref_url>  (105) 
nan

>  <submitter_name>  (105) 
nan

>  <submitter_institution>  (105) 
nan

$$$$
x0592_0_A_α-x1015_0_A_α
     RDKit          3D

 28 30  0  0  0  0  0  0  0  0999 V2000
   -2.7980   14.9600    1.0370 N   0  0  0  0  0  0  0  0  0  0  0  0
   -3.3770   15.0900   -0.2010 C   0  0  0  0  0  0  0  0  0  0  0  0
   -2.6990   15.3010   -1.2630 N   0  0  0  0  0  0  0  0  0  0  0  0
   -4.8100   14.9770   -0.2150 C   0  0  0  0  0  0  0  0  0  0  0  0
   -1.2740   15.4510   -1.4340 C   0  0  0  0  0  0  0  0  0  0  0  0
   -5.6800   15.1630   -1.3140 C   0  0  0  0  0  0  0  0  0  0  0  0
   -5.6620   14.6620    0.8280 C   0  0  0  0  0  0  0  0  0  0  0  0
   -1.0710   15.8070   -2.9190 C   0  0  0  0  0  0  0  0  0  0  0  0
   -6.9610   14.9840   -1.0070 N   0  0  0  0  0  0  0  0  0  0  0  0
   -6.9270   14.6840    0.3020 N   0  0  0  0  0  0  0  0  0  0  0  0
   -8.1710   14.4260    0.9880 C   0  0  0  0  0  0  0  0  0  0  0  0
   -1.2310   14.5820   -3.8450 C   0  0  0  0  0  0  0  0  0  0  0  0
   -7.9610   13.9610    2.4210 C   0  0  0  0  0  0  0  0  0  0  0  0
    0.0100   13.6760   -3.8900 C   0  0  2  0  0  0  0  0  0  0  0  0
   -7.2690   14.9420    3.1840 O   0  0  0  0  0  0  0  0  0  0  0  0
   -0.2020   12.2270   -3.8760 N   0  0  0  0  0  0  0  0  0  0  0  0
    0.7660   13.8500   -2.5810 C   0  0  0  0  0  0  0  0  0  0  0  0
    1.0710   14.9110   -2.0630 O   0  0  0  0  0  0  0  0  0  0  0  0
    0.3240   11.6700   -2.6980 C   0  0  0  0  0  0  0  0  0  0  0  0
    1.0450   12.6300   -2.0690 N   0  0  0  0  0  0  0  0  0  0  0  0
   -0.5520   11.4570   -5.0180 C   0  0  0  0  0  0  0  0  0  0  0  0
    0.2010   10.5260   -2.2560 O   0  0  0  0  0  0  0  0  0  0  0  0
    0.0310   11.6760   -6.2760 C   0  0  0  0  0  0  0  0  0  0  0  0
   -1.5080   10.4340   -4.9070 C   0  0  0  0  0  0  0  0  0  0  0  0
   -0.3270   10.9000   -7.3850 C   0  0  0  0  0  0  0  0  0  0  0  0
   -1.8700    9.6550   -6.0110 C   0  0  0  0  0  0  0  0  0  0  0  0
   -1.2790    9.8900   -7.2470 C   0  0  0  0  0  0  0  0  0  0  0  0
   -1.7260    8.9300   -8.6010 Cl  0  0  0  0  0  0  0  0  0  0  0  0
  1  2  1  0
  2  3  2  3
  2  4  1  0
  3  5  1  0
  4  6  1  0
  4  7  2  0
  5  8  1  0
  6  9  2  0
  7 10  1  0
  9 10  1  0
 10 11  1  0
  8 12  1  0
 11 13  1  0
 14 12  1  1
 13 15  1  0
 14 16  1  0
 14 17  1  0
 17 18  2  0
 16 19  1  0
 17 20  1  0
 19 20  1  0
 16 21  1  0
 19 22  2  0
 21 23  2  0
 21 24  1  0
 23 25  1  0
 24 26  2  0
 25 27  2  0
 26 27  1  0
 27 28  1  0
M  END
>  <comRMSD>  (106) 
0.273967

>  <∆∆G>  (106) 
-7.423326

>  <N_constrained_atoms>  (106) 
26.0

>  <LE>  (106) 
-0.265119

>  <ref_pdb>  (106) 
x0104_0

>  <ref_mols>  (106) 
x0592_0_A_α,x1015_0_A_α

>  <%Rank>  (106) 
1.801647

>  <generation_date>  (106) 
nan

>  <method>  (106) 
nan

>  <submitter_email>  (106) 
nan

>  <original SMILES>  (106) 
NC(=NCCCC1C(=O)NC(=O)N1c1ccc(Cl)cc1)c1cnn(CCO)c1

>  <ref_url>  (106) 
nan

>  <submitter_name>  (106) 
nan

>  <submitter_institution>  (106) 
nan

$$$$
x0421_0_A_α-x1012_0_A_α
     RDKit          3D

 23 25  0  0  0  0  0  0  0  0999 V2000
   -3.7440   15.3770   -2.7750 N   0  0  0  0  0  0  0  0  0  0  0  0
   -2.9270   14.8670   -1.8000 C   0  0  0  0  0  0  0  0  0  0  0  0
   -1.7050   14.4730   -1.8610 N   0  0  0  0  0  0  0  0  0  0  0  0
   -3.5680   14.8210   -0.4860 C   0  0  0  0  0  0  0  0  0  0  0  0
   -2.9210   14.9170    0.7370 C   0  0  0  0  0  0  0  0  0  0  0  0
   -4.9270   14.6890   -0.2840 N   0  0  0  0  0  0  0  0  0  0  0  0
   -0.9390   14.6010   -3.1090 C   0  0  2  0  0  0  0  0  0  0  0  0
   -3.9060   14.8420    1.6710 N   0  0  0  0  0  0  0  0  0  0  0  0
   -5.0880   14.7050    1.0190 C   0  0  0  0  0  0  0  0  0  0  0  0
   -1.7130   15.1340   -4.2930 C   0  0  0  0  0  0  0  0  0  0  0  0
   -0.1080   13.4520   -3.6290 C   0  0  2  0  0  0  0  0  0  0  0  0
    0.4980   12.6170   -2.5290 C   0  0  0  0  0  0  0  0  0  0  0  0
   -6.4640   14.5800    1.7180 C   0  0  0  0  0  0  0  0  0  0  0  0
    0.9180   14.1090   -4.5750 C   0  0  0  0  0  0  0  0  0  0  0  0
   -0.8010   16.0060   -4.9980 N   0  0  0  0  0  0  0  0  0  0  0  0
   -1.2090   17.3120   -4.8810 C   0  0  0  0  0  0  0  0  0  0  0  0
    0.1520   11.3090   -2.6270 O   0  0  0  0  0  0  0  0  0  0  0  0
    1.2140   12.9770   -1.6260 O   0  0  0  0  0  0  0  0  0  0  0  0
   -7.7390   14.6560    0.9200 C   0  0  0  0  0  0  0  0  0  0  0  0
   -7.3000   13.3480    1.5190 C   0  0  0  0  0  0  0  0  0  0  0  0
    0.6310   15.6130   -4.8640 C   0  0  0  0  0  0  0  0  0  0  0  0
   -0.2580   18.2520   -4.7220 N   0  0  0  0  0  0  0  0  0  0  0  0
   -2.3760   17.6770   -4.8870 O   0  0  0  0  0  0  0  0  0  0  0  0
  1  2  1  0
  2  3  2  3
  2  4  1  0
  4  5  2  0
  4  6  1  0
  7  3  1  1
  5  8  1  0
  6  9  2  0
  8  9  1  0
  7 10  1  0
  7 11  1  0
 11 12  1  1
  9 13  1  0
 11 14  1  0
 10 15  1  0
 15 16  1  0
 12 17  1  0
 12 18  2  0
 13 19  1  0
 13 20  1  0
 19 20  1  0
 14 21  1  0
 15 21  1  0
 16 22  1  0
 16 23  2  0
M  END
>  <comRMSD>  (107) 
0.439871

>  <∆∆G>  (107) 
-6.968643

>  <N_constrained_atoms>  (107) 
23.0

>  <LE>  (107) 
-0.302984

>  <ref_pdb>  (107) 
x0104_0

>  <ref_mols>  (107) 
x0421_0_A_α,x1012_0_A_α

>  <%Rank>  (107) 
1.818806

>  <generation_date>  (107) 
nan

>  <method>  (107) 
nan

>  <submitter_email>  (107) 
nan

>  <original SMILES>  (107) 
NC(=O)N1CCC(C(=O)O)C(N=C(N)c2c[nH]c(C3CC3)n2)C1

>  <ref_url>  (107) 
nan

>  <submitter_name>  (107) 
nan

>  <submitter_institution>  (107) 
nan

$$$$
x0471_0_A_α-x0969_0_A_α
     RDKit          3D

 17 18  0  0  0  0  0  0  0  0999 V2000
   -9.0750   14.0690    2.5440 N   0  0  0  0  0  0  0  0  0  0  0  0
   -9.0870   14.9810    3.5850 C   0  0  0  0  0  0  0  0  0  0  0  0
   -9.3650   16.1680    3.4310 O   0  0  0  0  0  0  0  0  0  0  0  0
   -9.1040   14.4610    1.1390 C   0  0  0  0  0  0  0  0  0  0  0  0
   -8.7450   14.4180    4.9640 C   0  0  0  0  0  0  0  0  0  0  0  0
   -7.7180   14.6550    0.6220 C   0  0  0  0  0  0  0  0  0  0  0  0
   -9.9280   13.6510    5.5540 C   0  0  0  0  0  0  0  0  0  0  0  0
   -8.2770   15.5210    5.9210 C   0  0  0  0  0  0  0  0  0  0  0  0
   -7.3080   14.7150   -0.6360 N   0  0  0  0  0  0  0  0  0  0  0  0
   -6.6680   14.8070    1.4620 N   0  0  0  0  0  0  0  0  0  0  0  0
   -6.7970   14.8090    2.8750 N   0  0  0  0  0  0  0  0  0  0  0  0
   -5.5060   14.9640    0.7480 C   0  0  0  0  0  0  0  0  0  0  0  0
   -5.9440   14.9090   -0.5720 C   0  0  0  0  0  0  0  0  0  0  0  0
   -5.0070   15.0490   -1.6060 C   0  0  0  0  0  0  0  0  0  0  0  0
   -4.1620   15.1460    1.1060 C   0  0  0  0  0  0  0  0  0  0  0  0
   -3.6600   15.2310   -1.2730 C   0  0  0  0  0  0  0  0  0  0  0  0
   -3.2500   15.2740    0.0610 C   0  0  0  0  0  0  0  0  0  0  0  0
  1  2  1  0
  2  3  2  0
  1  4  1  0
  2  5  1  0
  4  6  1  0
  5  7  1  0
  5  8  1  0
  6  9  2  0
  6 10  1  0
 10 11  1  0
 10 12  1  0
  9 13  1  0
 12 13  2  0
 13 14  1  0
 12 15  1  0
 14 16  2  0
 15 17  2  0
 16 17  1  0
M  END
>  <comRMSD>  (108) 
0.307385

>  <∆∆G>  (108) 
-4.49011

>  <N_constrained_atoms>  (108) 
17.0

>  <LE>  (108) 
-0.264124

>  <ref_pdb>  (108) 
x0104_0

>  <ref_mols>  (108) 
x0471_0_A_α,x0969_0_A_α

>  <%Rank>  (108) 
1.835964

>  <generation_date>  (108) 
nan

>  <method>  (108) 
nan

>  <submitter_email>  (108) 
nan

>  <original SMILES>  (108) 
CC(C)C(=O)NCc1nc2ccccc2n1N

>  <ref_url>  (108) 
nan

>  <submitter_name>  (108) 
nan

>  <submitter_institution>  (108) 
nan

$$$$
x0685_1_A_α-x0159_0_B_β
     RDKit          3D

 24 26  0  0  0  0  0  0  0  0999 V2000
   -1.1320   10.5390   -4.9290 N   0  0  0  0  0  0  0  0  0  0  0  0
   -1.4430   11.9100   -4.5060 C   0  0  0  0  0  0  0  0  0  0  0  0
   -0.1900   12.6780   -4.0990 C   0  0  0  0  0  0  0  0  0  0  0  0
   -0.6380   10.3900   -6.3100 C   0  0  1  0  0  0  0  0  0  0  0  0
   -0.4460    8.9160   -6.7270 C   0  0  0  0  0  0  0  0  0  0  0  0
   -1.6300   11.1030   -7.2640 C   0  0  0  0  0  0  0  0  0  0  0  0
    0.6240   12.0280   -2.6380 S   0  0  0  0  0  0  0  0  0  0  0  0
   -0.1660    8.7350   -8.2380 C   0  0  2  0  0  0  0  0  0  0  0  0
   -1.4200   10.8380   -8.7610 C   0  0  0  0  0  0  0  0  0  0  0  0
    2.1840   12.3130   -2.8460 O   0  0  0  0  0  0  0  0  0  0  0  0
    0.3210   10.4550   -2.5430 O   0  0  0  0  0  0  0  0  0  0  0  0
    0.0850   12.7560   -1.3170 O   0  0  0  0  0  0  0  0  0  0  0  0
    1.2210    9.1940   -8.7350 C   0  0  0  0  0  0  0  0  0  0  0  0
   -1.2790    9.3610   -9.0770 C   0  0  0  0  0  0  0  0  0  0  0  0
    1.5970    8.5490   -9.9970 N   0  0  0  0  0  0  0  0  0  0  0  0
    2.2590    9.0650  -11.0720 C   0  0  0  0  0  0  0  0  0  0  0  0
    1.9610   10.2530  -11.6990 N   0  0  0  0  0  0  0  0  0  0  0  0
    3.2780    8.4800  -11.6560 N   0  0  0  0  0  0  0  0  0  0  0  0
    2.8470   10.4320  -12.7470 C   0  0  0  0  0  0  0  0  0  0  0  0
    3.6570    9.3020  -12.6890 C   0  0  0  0  0  0  0  0  0  0  0  0
    3.0100   11.4400  -13.7010 C   0  0  0  0  0  0  0  0  0  0  0  0
    4.6920    9.1490  -13.6250 C   0  0  0  0  0  0  0  0  0  0  0  0
    4.0490   11.2700  -14.6270 C   0  0  0  0  0  0  0  0  0  0  0  0
    4.8770   10.1440  -14.5910 C   0  0  0  0  0  0  0  0  0  0  0  0
  1  2  1  0
  2  3  1  0
  4  1  1  1
  4  5  1  0
  4  6  1  0
  3  7  1  0
  5  8  1  0
  6  9  1  0
  7 10  1  0
  7 11  1  0
  7 12  1  0
  8 13  1  6
  8 14  1  0
  9 14  1  0
 13 15  1  0
 15 16  1  0
 16 17  1  0
 16 18  2  0
 17 19  1  0
 18 20  1  0
 19 20  2  0
 19 21  1  0
 20 22  1  0
 21 23  2  0
 22 24  2  0
 23 24  1  0
M  END
>  <comRMSD>  (109) 
0.340281

>  <∆∆G>  (109) 
-7.702771

>  <N_constrained_atoms>  (109) 
23.0

>  <LE>  (109) 
-0.320949

>  <ref_pdb>  (109) 
x0104_0

>  <ref_mols>  (109) 
x0685_1_A_α,x0159_0_B_β

>  <%Rank>  (109) 
1.853123

>  <generation_date>  (109) 
nan

>  <method>  (109) 
nan

>  <submitter_email>  (109) 
nan

>  <original SMILES>  (109) 
OS(O)(O)CCNC1CCCC(CNc2nc3ccccc3[nH]2)C1

>  <ref_url>  (109) 
nan

>  <submitter_name>  (109) 
nan

>  <submitter_institution>  (109) 
nan

$$$$
x0290_0_A_α-x0662_0_A_β
     RDKit          3D

 25 26  0  0  0  0  0  0  0  0999 V2000
   -7.7250   13.8260    0.8440 N   0  0  0  0  0  0  0  0  0  0  0  0
   -8.6220   14.9630    0.7240 C   0  0  0  0  0  0  0  0  0  0  0  0
   -6.5450   14.1130    1.6840 C   0  0  0  0  0  0  0  0  0  0  0  0
   -5.3000   14.4390    0.8520 C   0  0  0  0  0  0  0  0  0  0  0  0
   -5.3710   14.4550   -0.3860 O   0  0  0  0  0  0  0  0  0  0  0  0
   -4.1010   14.7090    1.4360 N   0  0  0  0  0  0  0  0  0  0  0  0
   -2.8020   14.6160    0.9270 C   0  0  0  0  0  0  0  0  0  0  0  0
   -1.7410   14.5480    1.7540 N   0  0  0  0  0  0  0  0  0  0  0  0
   -2.6600   14.5920   -0.4580 C   0  0  0  0  0  0  0  0  0  0  0  0
   -0.5150   14.4630    1.1960 C   0  0  0  0  0  0  0  0  0  0  0  0
   -1.3810   14.4960   -1.0250 C   0  0  0  0  0  0  0  0  0  0  0  0
   -1.2000   14.4600   -2.5270 C   0  0  0  0  0  0  0  0  0  0  0  0
   -0.2830   14.4340   -0.1650 C   0  0  0  0  0  0  0  0  0  0  0  0
   -1.5030   13.0640   -3.1050 C   0  0  0  0  0  0  0  0  0  0  0  0
   -0.2550   12.3680   -3.6580 C   0  0  0  0  0  0  0  0  0  0  0  0
   -0.6150   11.4960   -4.7900 N   0  0  0  0  0  0  0  0  0  0  0  0
    0.2440   11.5130   -5.7630 C   0  0  0  0  0  0  0  0  0  0  0  0
    1.3070   12.1500   -5.8800 O   0  0  0  0  0  0  0  0  0  0  0  0
    0.0050   10.6360   -6.9970 C   0  0  0  0  0  0  0  0  0  0  0  0
    0.8040   10.8870   -8.1180 C   0  0  0  0  0  0  0  0  0  0  0  0
   -0.9390    9.6030   -7.1030 C   0  0  0  0  0  0  0  0  0  0  0  0
    0.6890   10.1630   -9.3100 C   0  0  0  0  0  0  0  0  0  0  0  0
   -1.0680    8.8630   -8.2860 C   0  0  0  0  0  0  0  0  0  0  0  0
    1.5130   10.4630  -10.4090 N   0  0  0  0  0  0  0  0  0  0  0  0
   -0.2540    9.1460   -9.3880 C   0  0  0  0  0  0  0  0  0  0  0  0
  1  2  1  0
  1  3  1  0
  3  4  1  0
  4  5  2  0
  4  6  1  0
  6  7  1  0
  7  8  2  0
  7  9  1  0
  8 10  1  0
  9 11  2  0
 11 12  1  0
 10 13  2  0
 11 13  1  0
 12 14  1  0
 14 15  1  0
 15 16  1  0
 16 17  2  3
 17 18  1  0
 17 19  1  0
 19 20  2  0
 19 21  1  0
 20 22  1  0
 21 23  2  0
 22 24  1  0
 22 25  2  0
 23 25  1  0
M  CHG  1  18  -1
M  END
>  <comRMSD>  (110) 
0.240481

>  <∆∆G>  (110) 
-8.441226

>  <N_constrained_atoms>  (110) 
23.0

>  <LE>  (110) 
-0.337649

>  <ref_pdb>  (110) 
x0104_0

>  <ref_mols>  (110) 
x0290_0_A_α,x0662_0_A_β

>  <%Rank>  (110) 
1.870281

>  <generation_date>  (110) 
nan

>  <method>  (110) 
nan

>  <submitter_email>  (110) 
nan

>  <original SMILES>  (110) 
CNCC(=O)Nc1cc(CCCN=C([O-])c2cccc(N)c2)ccn1

>  <ref_url>  (110) 
nan

>  <submitter_name>  (110) 
nan

>  <submitter_institution>  (110) 
nan

$$$$
5CMS_0_A_γ-6WOJ_0_A_β
     RDKit          3D

 16 16  0  0  0  0  0  0  0  0999 V2000
   -0.4760   12.0350   -4.0070 O   0  0  0  0  0  0  0  0  0  0  0  0
   -0.8930   13.3560   -4.1260 C   0  0  1  0  0  0  0  0  0  0  0  0
   -0.6090   14.1750   -2.8700 C   0  0  0  0  0  0  0  0  0  0  0  0
   -0.1260   14.1140   -5.1670 C   0  0  2  0  0  0  0  0  0  0  0  0
    1.2280   13.8050   -4.9820 O   0  0  0  0  0  0  0  0  0  0  0  0
   -0.1780   15.4280   -3.3410 O   0  0  0  0  0  0  0  0  0  0  0  0
   -0.5360   15.4600   -4.6780 C   0  0  1  0  0  0  0  0  0  0  0  0
   -0.0510   16.7420   -5.3690 C   0  0  0  0  0  0  0  0  0  0  0  0
   -1.3270   17.9170   -5.6970 P   0  0  0  0  0  0  0  0  0  0  0  0
   -0.4710   19.1390   -6.0470 O   0  0  0  0  0  0  0  0  0  0  0  0
   -1.7920   18.9410   -4.4400 O   0  0  0  0  0  0  0  0  0  0  0  0
   -2.2200   18.0240   -7.0270 O   0  0  0  0  0  0  0  0  0  0  0  0
    0.1340   19.5740   -7.4620 P   0  0  0  0  0  0  0  0  0  0  0  0
   -1.0960   20.3970   -7.8870 O   0  0  0  0  0  0  0  0  0  0  0  0
    1.0970   20.9570   -7.5950 O   0  0  0  0  0  0  0  0  0  0  0  0
    0.0590   18.5380   -8.7300 O   0  0  0  0  0  0  0  0  0  0  0  0
  2  1  1  1
  2  3  1  0
  2  4  1  0
  4  5  1  1
  3  6  1  0
  4  7  1  0
  6  7  1  0
  7  8  1  6
  8  9  1  0
  9 10  1  0
  9 11  1  0
  9 12  1  0
 10 13  1  0
 13 14  1  0
 13 15  1  0
 13 16  1  0
M  CHG  2  11  -1  15  -1
M  END
>  <comRMSD>  (111) 
0.412271

>  <∆∆G>  (111) 
-8.277595

>  <N_constrained_atoms>  (111) 
16.0

>  <LE>  (111) 
-0.51735

>  <ref_pdb>  (111) 
x0104_0

>  <ref_mols>  (111) 


>  <%Rank>  (111) 
1.88744

>  <generation_date>  (111) 
nan

>  <method>  (111) 
nan

>  <submitter_email>  (111) 
nan

>  <original SMILES>  (111) 
[O-][PH](O)(O)O[PH]([O-])(O)CC1OCC(O)C1O

>  <ref_url>  (111) 
nan

>  <submitter_name>  (111) 
nan

>  <submitter_institution>  (111) 
nan

$$$$
x0626_0_A_α-x0628_0_A_α
     RDKit          3D

 25 26  0  0  0  0  0  0  0  0999 V2000
   -5.0280   14.7570    1.4020 N   0  0  0  0  0  0  0  0  0  0  0  0
   -6.2200   14.6450    0.7640 C   0  0  0  0  0  0  0  0  0  0  0  0
   -6.2620   14.8060   -0.4580 O   0  0  0  0  0  0  0  0  0  0  0  0
   -3.8080   14.7790    0.8200 C   0  0  0  0  0  0  0  0  0  0  0  0
   -7.4600   14.3330    1.5780 C   0  0  0  0  0  0  0  0  0  0  0  0
   -2.6290   14.7690    1.3910 N   0  0  0  0  0  0  0  0  0  0  0  0
   -3.8640   14.8220   -0.8820 S   0  0  0  0  0  0  0  0  0  0  0  0
   -8.7370   14.6940    0.8400 C   0  0  0  0  0  0  0  0  0  0  0  0
   -2.1660   14.8350   -0.8970 C   0  0  0  0  0  0  0  0  0  0  0  0
   -1.6870   14.8140    0.3950 C   0  0  0  0  0  0  0  0  0  0  0  0
   -0.2840   14.8400    0.7850 C   0  0  0  0  0  0  0  0  0  0  0  0
    0.6200   14.2060   -0.2480 C   0  0  0  0  0  0  0  0  0  0  0  0
    0.1350   13.7640   -1.6040 C   0  0  0  0  0  0  0  0  0  0  0  0
    1.2110   12.9220   -2.0500 O   0  0  0  0  0  0  0  0  0  0  0  0
    0.9940   12.1820   -3.1530 C   0  0  0  0  0  0  0  0  0  0  0  0
    0.4400   11.0920   -3.1610 O   0  0  0  0  0  0  0  0  0  0  0  0
    1.5520   12.9060   -4.3450 C   0  0  0  0  0  0  0  0  0  0  0  0
    0.4600   13.1640   -5.3590 C   0  0  0  0  0  0  0  0  0  0  0  0
   -0.3280   11.9770   -5.6120 N   0  0  0  0  0  0  0  0  0  0  0  0
    0.0900   11.0900   -6.5280 N   0  0  0  0  0  0  0  0  0  0  0  0
   -1.5070   11.5810   -5.0360 C   0  0  0  0  0  0  0  0  0  0  0  0
   -2.2310   12.3390   -3.9910 C   0  0  0  0  0  0  0  0  0  0  0  0
   -1.8700   10.4310   -5.5700 N   0  0  0  0  0  0  0  0  0  0  0  0
   -0.8730   10.1650   -6.4690 C   0  0  0  0  0  0  0  0  0  0  0  0
   -0.8600    8.9520   -7.3080 C   0  0  0  0  0  0  0  0  0  0  0  0
  1  2  1  0
  2  3  2  0
  1  4  1  0
  2  5  1  0
  4  6  2  0
  4  7  1  0
  5  8  1  0
  7  9  1  0
  6 10  1  0
  9 10  2  0
 10 11  1  0
 11 12  1  0
 12 13  1  0
 13 14  1  0
 14 15  1  0
 15 16  2  0
 15 17  1  0
 17 18  1  0
 18 19  1  0
 19 20  1  0
 19 21  1  0
 21 22  1  0
 21 23  2  0
 20 24  2  0
 23 24  1  0
 24 25  1  0
M  END
>  <comRMSD>  (112) 
0.216904

>  <∆∆G>  (112) 
-7.212969

>  <N_constrained_atoms>  (112) 
23.0

>  <LE>  (112) 
-0.288519

>  <ref_pdb>  (112) 
x0104_0

>  <ref_mols>  (112) 
x0626_0_A_α,x0628_0_A_α

>  <%Rank>  (112) 
1.904598

>  <generation_date>  (112) 
nan

>  <method>  (112) 
nan

>  <submitter_email>  (112) 
nan

>  <original SMILES>  (112) 
CCC(=O)Nc1nc(CCCOC(=O)CCn2nc(C)nc2C)cs1

>  <ref_url>  (112) 
nan

>  <submitter_name>  (112) 
nan

>  <submitter_institution>  (112) 
nan

$$$$
x0128_0_A_α-x0628_0_A_α
     RDKit          3D

 31 33  0  0  0  0  0  0  0  0999 V2000
   -6.6950   14.6450    2.4520 N   0  0  0  0  0  0  0  0  0  0  0  0
   -7.8520   15.2230    2.9510 C   0  0  0  0  0  0  0  0  0  0  0  0
   -8.8180   15.6060    2.3030 O   0  0  0  0  0  0  0  0  0  0  0  0
   -6.0920   14.7350    1.1740 C   0  0  0  0  0  0  0  0  0  0  0  0
   -7.7100   15.2900    4.3260 N   0  0  0  0  0  0  0  0  0  0  0  0
   -6.7780   14.6390   -0.0360 C   0  0  0  0  0  0  0  0  0  0  0  0
   -4.7020   14.9310    1.1430 C   0  0  0  0  0  0  0  0  0  0  0  0
   -6.0880   14.7300   -1.2580 C   0  0  0  0  0  0  0  0  0  0  0  0
   -4.0160   15.0220   -0.0700 C   0  0  0  0  0  0  0  0  0  0  0  0
   -8.4710   16.0280    5.2660 C   0  0  0  0  0  0  0  0  0  0  0  0
   -4.6960   14.9170   -1.2880 C   0  0  0  0  0  0  0  0  0  0  0  0
   -9.1360   17.1810    4.8390 C   0  0  0  0  0  0  0  0  0  0  0  0
   -8.6180   15.6900    6.6070 C   0  0  0  0  0  0  0  0  0  0  0  0
   -3.9160   15.0060   -2.5900 C   0  0  0  0  0  0  0  0  0  0  0  0
   -9.9010   17.9750    5.6220 N   0  0  0  0  0  0  0  0  0  0  0  0
   -9.4000   16.4900    7.4450 C   0  0  0  0  0  0  0  0  0  0  0  0
   -4.4450   14.0700   -3.6890 C   0  0  0  0  0  0  0  0  0  0  0  0
  -10.0160   17.6110    6.9110 C   0  0  0  0  0  0  0  0  0  0  0  0
   -3.7170   12.7080   -3.8340 C   0  0  0  0  0  0  0  0  0  0  0  0
   -2.1780   12.7340   -3.9160 C   0  0  0  0  0  0  0  0  0  0  0  0
   -1.5360   11.8320   -4.9400 C   0  0  0  0  0  0  0  0  0  0  0  0
   -1.9960   10.6910   -5.4440 N   0  0  0  0  0  0  0  0  0  0  0  0
   -0.3130   12.0870   -5.5180 N   0  0  0  0  0  0  0  0  0  0  0  0
    0.5910   13.2030   -5.3030 C   0  0  0  0  0  0  0  0  0  0  0  0
   -1.0120   10.3000   -6.3200 C   0  0  0  0  0  0  0  0  0  0  0  0
    0.0300   11.1280   -6.3950 N   0  0  0  0  0  0  0  0  0  0  0  0
   -1.0830    9.0620   -7.1220 C   0  0  0  0  0  0  0  0  0  0  0  0
    1.6410   12.9630   -4.2270 C   0  0  0  0  0  0  0  0  0  0  0  0
    1.0630   12.2640   -3.0250 C   0  0  0  0  0  0  0  0  0  0  0  0
    0.5510   11.1560   -2.9970 O   0  0  0  0  0  0  0  0  0  0  0  0
    1.1640   12.9980   -1.9060 O   0  0  0  0  0  0  0  0  0  0  0  0
  1  2  1  0
  2  3  2  0
  1  4  1  0
  2  5  1  0
  4  6  2  0
  4  7  1  0
  6  8  1  0
  7  9  2  0
  5 10  1  0
  8 11  2  0
  9 11  1  0
 10 12  2  0
 10 13  1  0
 11 14  1  0
 12 15  1  0
 13 16  2  0
 14 17  1  0
 15 18  2  0
 16 18  1  0
 17 19  1  0
 19 20  1  0
 20 21  1  0
 21 22  2  0
 21 23  1  0
 23 24  1  0
 22 25  1  0
 23 26  1  0
 25 26  2  0
 25 27  1  0
 24 28  1  0
 28 29  1  0
 29 30  2  0
 29 31  1  0
M  END
>  <comRMSD>  (113) 
0.235623

>  <∆∆G>  (113) 
-8.719069

>  <N_constrained_atoms>  (113) 
28.0

>  <LE>  (113) 
-0.28126

>  <ref_pdb>  (113) 
x0104_0

>  <ref_mols>  (113) 
x0128_0_A_α,x0628_0_A_α

>  <%Rank>  (113) 
1.921757

>  <generation_date>  (113) 
nan

>  <method>  (113) 
nan

>  <submitter_email>  (113) 
nan

>  <original SMILES>  (113) 
Cc1nc(CCCCc2ccc(NC(=O)Nc3cccnc3)cc2)n(CCC(=O)O)n1

>  <ref_url>  (113) 
nan

>  <submitter_name>  (113) 
nan

>  <submitter_institution>  (113) 
nan

$$$$
x0662_0_A_β-x0290_0_A_α
     RDKit          3D

 25 26  0  0  0  0  0  0  0  0999 V2000
    1.4900   10.4400  -10.4180 N   0  0  0  0  0  0  0  0  0  0  0  0
    0.6720   10.1650   -9.2990 C   0  0  0  0  0  0  0  0  0  0  0  0
   -0.2900    9.1660   -9.3530 C   0  0  0  0  0  0  0  0  0  0  0  0
    0.8180   10.9000   -8.1200 C   0  0  0  0  0  0  0  0  0  0  0  0
    0.0350   10.6800   -6.9860 C   0  0  0  0  0  0  0  0  0  0  0  0
   -1.0920    8.9110   -8.2380 C   0  0  0  0  0  0  0  0  0  0  0  0
    0.2100   11.5010   -5.6990 C   0  0  0  0  0  0  0  0  0  0  0  0
   -0.9310    9.6650   -7.0610 C   0  0  0  0  0  0  0  0  0  0  0  0
   -0.6550   11.4020   -4.7400 N   0  0  0  0  0  0  0  0  0  0  0  0
    1.2490   12.1840   -5.7790 O   0  0  0  0  0  0  0  0  0  0  0  0
   -0.3840   12.2070   -3.5330 C   0  0  0  0  0  0  0  0  0  0  0  0
   -1.6010   13.0630   -3.1440 C   0  0  0  0  0  0  0  0  0  0  0  0
   -1.2750   14.4340   -2.5030 C   0  0  0  0  0  0  0  0  0  0  0  0
   -1.4040   14.4780   -0.9940 C   0  0  0  0  0  0  0  0  0  0  0  0
   -0.2980   14.3820   -0.1510 C   0  0  0  0  0  0  0  0  0  0  0  0
   -2.6670   14.6220   -0.4030 C   0  0  0  0  0  0  0  0  0  0  0  0
   -0.5140   14.4250    1.2170 C   0  0  0  0  0  0  0  0  0  0  0  0
   -2.7940   14.6580    0.9830 C   0  0  0  0  0  0  0  0  0  0  0  0
   -4.0810   14.8030    1.5110 N   0  0  0  0  0  0  0  0  0  0  0  0
   -1.7260   14.5540    1.7940 N   0  0  0  0  0  0  0  0  0  0  0  0
   -5.2690   14.4460    0.9320 C   0  0  0  0  0  0  0  0  0  0  0  0
   -5.3630   14.4560   -0.3050 O   0  0  0  0  0  0  0  0  0  0  0  0
   -6.4710   14.0340    1.7950 C   0  0  0  0  0  0  0  0  0  0  0  0
   -7.6540   13.7570    0.9380 N   0  0  0  0  0  0  0  0  0  0  0  0
   -8.5300   14.9080    0.8180 C   0  0  0  0  0  0  0  0  0  0  0  0
  1  2  1  0
  2  3  2  0
  2  4  1  0
  4  5  2  0
  3  6  1  0
  5  7  1  0
  5  8  1  0
  6  8  2  0
  7  9  2  3
  7 10  1  0
  9 11  1  0
 11 12  1  0
 12 13  1  0
 13 14  1  0
 14 15  2  0
 14 16  1  0
 15 17  1  0
 16 18  2  0
 18 19  1  0
 17 20  2  0
 18 20  1  0
 19 21  1  0
 21 22  2  0
 21 23  1  0
 23 24  1  0
 24 25  1  0
M  CHG  1  10  -1
M  END
>  <comRMSD>  (114) 
0.24248

>  <∆∆G>  (114) 
-8.462651

>  <N_constrained_atoms>  (114) 
23.0

>  <LE>  (114) 
-0.338506

>  <ref_pdb>  (114) 
x0104_0

>  <ref_mols>  (114) 
x0662_0_A_β,x0290_0_A_α

>  <%Rank>  (114) 
1.938916

>  <generation_date>  (114) 
nan

>  <method>  (114) 
nan

>  <submitter_email>  (114) 
nan

>  <original SMILES>  (114) 
CNCC(=O)Nc1cc(CCCN=C([O-])c2cccc(N)c2)ccn1

>  <ref_url>  (114) 
nan

>  <submitter_name>  (114) 
nan

>  <submitter_institution>  (114) 
nan

$$$$
x0685_0_A_α-x0628_0_A_α
     RDKit          3D

 24 25  0  0  0  0  0  0  0  0999 V2000
   -6.3110   15.1070    2.5400 N   0  0  0  0  0  0  0  0  0  0  0  0
   -7.7090   14.7130    2.5660 C   0  0  0  0  0  0  0  0  0  0  0  0
   -7.8530   13.2950    3.0920 C   0  0  0  0  0  0  0  0  0  0  0  0
   -5.6170   15.0620    1.3260 C   0  0  0  0  0  0  0  0  0  0  0  0
   -4.2280   15.2060    1.3690 C   0  0  0  0  0  0  0  0  0  0  0  0
   -6.2800   14.8960    0.1720 N   0  0  0  0  0  0  0  0  0  0  0  0
   -3.5010   15.1760    0.1870 C   0  0  0  0  0  0  0  0  0  0  0  0
   -5.5580   14.8740   -0.9610 C   0  0  0  0  0  0  0  0  0  0  0  0
   -4.1880   15.0060   -1.0060 C   0  0  0  0  0  0  0  0  0  0  0  0
   -3.5150   14.9500   -2.2490 C   0  0  0  0  0  0  0  0  0  0  0  0
   -2.9670   14.6760   -3.2680 C   0  0  0  0  0  0  0  0  0  0  0  0
   -2.3120   14.0700   -4.4320 C   0  0  0  0  0  0  0  0  0  0  0  0
   -2.2790   12.5500   -4.1850 C   0  0  0  0  0  0  0  0  0  0  0  0
   -1.4670   11.7570   -5.1530 C   0  0  0  0  0  0  0  0  0  0  0  0
   -1.8560   10.6240   -5.7070 N   0  0  0  0  0  0  0  0  0  0  0  0
   -0.2110   12.0660   -5.6140 N   0  0  0  0  0  0  0  0  0  0  0  0
    0.6510   13.1950   -5.3140 C   0  0  0  0  0  0  0  0  0  0  0  0
   -0.8040   10.2710   -6.5050 C   0  0  0  0  0  0  0  0  0  0  0  0
    0.2210   11.1280   -6.4800 N   0  0  0  0  0  0  0  0  0  0  0  0
   -0.8040    9.0450   -7.3210 C   0  0  0  0  0  0  0  0  0  0  0  0
    1.6900   12.9320   -4.2330 C   0  0  0  0  0  0  0  0  0  0  0  0
    1.0810   12.2500   -3.0400 C   0  0  0  0  0  0  0  0  0  0  0  0
    0.5310   11.1620   -3.0190 O   0  0  0  0  0  0  0  0  0  0  0  0
    1.1930   12.9720   -1.9130 O   0  0  0  0  0  0  0  0  0  0  0  0
  1  2  1  0
  2  3  1  0
  1  4  1  0
  4  5  2  0
  4  6  1  0
  5  7  1  0
  6  8  2  0
  7  9  2  0
  8  9  1  0
  9 10  1  0
 10 11  3  0
 11 12  1  0
 12 13  1  0
 13 14  1  0
 14 15  2  0
 14 16  1  0
 16 17  1  0
 15 18  1  0
 16 19  1  0
 18 19  2  0
 18 20  1  0
 17 21  1  0
 21 22  1  0
 22 23  2  0
 22 24  1  0
M  END
>  <comRMSD>  (115) 
0.276182

>  <∆∆G>  (115) 
-4.492512

>  <N_constrained_atoms>  (115) 
23.0

>  <LE>  (115) 
-0.187188

>  <ref_pdb>  (115) 
x0104_0

>  <ref_mols>  (115) 
x0685_0_A_α,x0628_0_A_α

>  <%Rank>  (115) 
1.956074

>  <generation_date>  (115) 
nan

>  <method>  (115) 
nan

>  <submitter_email>  (115) 
nan

>  <original SMILES>  (115) 
CCNc1ccc(C#CCCc2nc(C)nn2CCC(=O)O)cn1

>  <ref_url>  (115) 
nan

>  <submitter_name>  (115) 
nan

>  <submitter_institution>  (115) 
nan

$$$$
x0685_0_A_α-x0104_0_A_α
     RDKit          3D

 18 19  0  0  0  0  0  0  0  0999 V2000
   -6.1650   14.8500    2.7340 N   0  0  0  0  0  0  0  0  0  0  0  0
   -7.5830   14.6470    3.0340 C   0  0  1  0  0  0  0  0  0  0  0  0
   -8.0530   13.2040    2.9080 C   0  0  0  0  0  0  0  0  0  0  0  0
   -5.5480   14.9090    1.4700 C   0  0  0  0  0  0  0  0  0  0  0  0
   -7.7700   15.0700    4.4090 N   0  0  0  0  0  0  0  0  0  0  0  0
   -8.3650   15.3910    2.1330 O   0  0  0  0  0  0  0  0  0  0  0  0
   -4.1600   15.0590    1.3990 C   0  0  0  0  0  0  0  0  0  0  0  0
   -6.3050   14.8250    0.3590 N   0  0  0  0  0  0  0  0  0  0  0  0
   -3.5290   15.1290    0.1640 C   0  0  0  0  0  0  0  0  0  0  0  0
   -5.6670   14.8990   -0.8430 C   0  0  0  0  0  0  0  0  0  0  0  0
   -8.9230   15.0650    5.1680 C   0  0  0  0  0  0  0  0  0  0  0  0
   -4.2950   15.0490   -0.9890 C   0  0  0  0  0  0  0  0  0  0  0  0
   -9.0850   15.1490    6.5430 C   0  0  0  0  0  0  0  0  0  0  0  0
  -10.4650   14.9420    4.4050 S   0  0  0  0  0  0  0  0  0  0  0  0
   -3.6940   15.1150   -2.2830 C   0  0  0  0  0  0  0  0  0  0  0  0
  -10.4530   15.1120    6.9610 C   0  0  0  0  0  0  0  0  0  0  0  0
  -11.3120   14.9990    5.8920 C   0  0  0  0  0  0  0  0  0  0  0  0
   -3.2030   15.1760   -3.3310 N   0  0  0  0  0  0  0  0  0  0  0  0
  1  2  1  0
  2  3  1  1
  1  4  1  0
  2  5  1  0
  2  6  1  0
  4  7  2  0
  4  8  1  0
  7  9  1  0
  8 10  2  0
  5 11  1  0
  9 12  2  0
 10 12  1  0
 11 13  2  0
 11 14  1  0
 12 15  1  0
 13 16  1  0
 14 17  1  0
 16 17  2  0
 15 18  3  0
M  END
>  <comRMSD>  (116) 
0.343647

>  <∆∆G>  (116) 
-5.186724

>  <N_constrained_atoms>  (116) 
18.0

>  <LE>  (116) 
-0.288151

>  <ref_pdb>  (116) 
x0104_0

>  <ref_mols>  (116) 
x0685_0_A_α,x0104_0_A_α

>  <%Rank>  (116) 
1.973233

>  <generation_date>  (116) 
nan

>  <method>  (116) 
nan

>  <submitter_email>  (116) 
nan

>  <original SMILES>  (116) 
CC(O)(Nc1ccc(C#N)cn1)Nc1cccs1

>  <ref_url>  (116) 
nan

>  <submitter_name>  (116) 
nan

>  <submitter_institution>  (116) 
nan

$$$$
1SPV_0_A_α-5dus_0_A_β
     RDKit          3D

 16 16  0  0  0  0  0  0  0  0999 V2000
    1.0240   20.7440   -7.6520 O   0  0  0  0  0  0  0  0  0  0  0  0
   -0.0870   19.5770   -7.7010 S   0  0  0  0  0  0  0  0  0  0  0  0
    0.2590   18.5460   -8.8680 O   0  0  0  0  0  0  0  0  0  0  0  0
   -0.1830   18.8440   -6.2720 O   0  0  0  0  0  0  0  0  0  0  0  0
   -1.6300   20.3350   -8.1490 C   0  0  0  0  0  0  0  0  0  0  0  0
   -1.9290   21.7220   -7.6710 C   0  0  0  0  0  0  0  0  0  0  0  0
   -1.5630   18.1330   -5.8380 P   0  0  0  0  0  0  0  0  0  0  0  0
   -1.0860   16.8650   -4.9960 O   0  0  0  0  0  0  0  0  0  0  0  0
   -2.5940   17.8190   -6.8570 O   0  0  0  0  0  0  0  0  0  0  0  0
   -2.1030   19.0880   -4.6790 O   0  0  0  0  0  0  0  0  0  0  0  0
   -3.3870   21.9600   -7.7190 N   0  0  0  0  0  0  0  0  0  0  0  0
   -3.8710   22.4610   -9.0180 C   0  0  0  0  0  0  0  0  0  0  0  0
   -3.8050   22.8620   -6.6450 C   0  0  0  0  0  0  0  0  0  0  0  0
   -5.3890   22.6560   -9.0330 C   0  0  0  0  0  0  0  0  0  0  0  0
   -5.2790   23.2320   -6.6960 C   0  0  0  0  0  0  0  0  0  0  0  0
   -5.8160   23.5390   -7.9940 O   0  0  0  0  0  0  0  0  0  0  0  0
  2  1  1  0
  2  3  1  0
  2  4  1  0
  2  5  1  0
  5  6  1  0
  4  7  1  0
  7  8  1  0
  7  9  2  0
  7 10  1  0
  6 11  1  0
 11 12  1  0
 11 13  1  0
 12 14  1  0
 13 15  1  0
 14 16  1  0
 15 16  1  0
M  END
>  <comRMSD>  (117) 
0.521841

>  <∆∆G>  (117) 
-11.710341

>  <N_constrained_atoms>  (117) 
16.0

>  <LE>  (117) 
-0.731896

>  <ref_pdb>  (117) 
x0104_0

>  <ref_mols>  (117) 


>  <%Rank>  (117) 
1.990391

>  <generation_date>  (117) 
nan

>  <method>  (117) 
nan

>  <submitter_email>  (117) 
nan

>  <original SMILES>  (117) 
O=P(O)(O)OS(O)(O)CCN1CCOCC1

>  <ref_url>  (117) 
nan

>  <submitter_name>  (117) 
nan

>  <submitter_institution>  (117) 
nan

$$$$
x0724_0_A_α-x0253_0_A_α
     RDKit          3D

 31 33  0  0  0  0  0  0  0  0999 V2000
   -8.2590   13.7730    4.4170 N   0  0  0  0  0  0  0  0  0  0  0  0
   -8.6650   13.9520    5.8050 C   0  0  0  0  0  0  0  0  0  0  0  0
   -8.4870   14.9850    3.6380 C   0  0  0  0  0  0  0  0  0  0  0  0
   -7.7760   14.8390    2.3370 C   0  0  0  0  0  0  0  0  0  0  0  0
   -6.4150   14.8620    2.1050 C   0  0  0  0  0  0  0  0  0  0  0  0
   -8.3250   14.6500    1.0530 C   0  0  0  0  0  0  0  0  0  0  0  0
   -7.3980   14.5680    0.0990 N   0  0  0  0  0  0  0  0  0  0  0  0
   -6.2120   14.7030    0.7520 N   0  0  0  0  0  0  0  0  0  0  0  0
   -4.9650   14.6820    0.0670 C   0  0  0  0  0  0  0  0  0  0  0  0
   -3.7550   14.7660    0.7730 C   0  0  0  0  0  0  0  0  0  0  0  0
   -4.9400   14.5780   -1.3330 C   0  0  0  0  0  0  0  0  0  0  0  0
   -2.5390   14.7390    0.0860 C   0  0  0  0  0  0  0  0  0  0  0  0
   -3.7220   14.5510   -2.0190 C   0  0  0  0  0  0  0  0  0  0  0  0
   -2.5060   14.6290   -1.3130 C   0  0  0  0  0  0  0  0  0  0  0  0
   -1.1890   14.5880   -2.0620 C   0  0  0  0  0  0  0  0  0  0  0  0
    0.0360   14.7200   -1.1370 C   0  0  0  0  0  0  0  0  0  0  0  0
    1.2500   14.0000   -1.7140 C   0  0  0  0  0  0  0  0  0  0  0  0
    0.8730   12.6050   -1.8570 N   0  0  0  0  0  0  0  0  0  0  0  0
    0.7360   12.1030   -3.0280 C   0  0  0  0  0  0  0  0  0  0  0  0
    0.3590   10.8040   -3.0880 O   0  0  0  0  0  0  0  0  0  0  0  0
    0.9280   12.7780   -4.3860 C   0  0  0  0  0  0  0  0  0  0  0  0
    0.3250   11.9460   -5.4130 N   0  0  0  0  0  0  0  0  0  0  0  0
    1.0640   11.6680   -6.5430 C   0  0  0  0  0  0  0  0  0  0  0  0
    2.1740   12.1430   -6.6690 O   0  0  0  0  0  0  0  0  0  0  0  0
    0.4540   10.7470   -7.5440 C   0  0  0  0  0  0  0  0  0  0  0  0
   -0.5260    9.8360   -7.1350 C   0  0  0  0  0  0  0  0  0  0  0  0
    0.8480   10.7800   -8.8850 C   0  0  0  0  0  0  0  0  0  0  0  0
   -1.1120    8.9630   -8.0620 C   0  0  0  0  0  0  0  0  0  0  0  0
    0.2700    9.9140   -9.8090 C   0  0  0  0  0  0  0  0  0  0  0  0
   -2.1650    7.9850   -7.6220 C   0  0  0  0  0  0  0  0  0  0  0  0
   -0.7050    9.0080   -9.4020 C   0  0  0  0  0  0  0  0  0  0  0  0
  1  2  1  0
  1  3  1  0
  3  4  1  0
  4  5  2  0
  4  6  1  0
  6  7  2  0
  5  8  1  0
  7  8  1  0
  8  9  1  0
  9 10  2  0
  9 11  1  0
 10 12  1  0
 11 13  2  0
 12 14  2  0
 13 14  1  0
 14 15  1  0
 15 16  1  0
 16 17  1  0
 17 18  1  0
 18 19  2  3
 19 20  1  0
 19 21  1  0
 21 22  1  0
 22 23  1  0
 23 24  2  0
 23 25  1  0
 25 26  2  0
 25 27  1  0
 26 28  1  0
 27 29  2  0
 28 30  1  0
 28 31  2  0
 29 31  1  0
M  END
>  <comRMSD>  (118) 
0.233983

>  <∆∆G>  (118) 
-8.462046

>  <N_constrained_atoms>  (118) 
28.0

>  <LE>  (118) 
-0.272969

>  <ref_pdb>  (118) 
x0104_0

>  <ref_mols>  (118) 
x0724_0_A_α,x0253_0_A_α

>  <%Rank>  (118) 
2.00755

>  <generation_date>  (118) 
nan

>  <method>  (118) 
nan

>  <submitter_email>  (118) 
nan

>  <original SMILES>  (118) 
CNCc1cnn(-c2ccc(CCCN=C(O)CNC(=O)c3cccc(C)c3)cc2)c1

>  <ref_url>  (118) 
nan

>  <submitter_name>  (118) 
nan

>  <submitter_institution>  (118) 
nan

$$$$
x1012_0_A_α-x0685_0_A_α
     RDKit          3D

 24 25  0  0  0  0  0  0  0  0999 V2000
   -0.3650   18.1530   -4.7790 N   0  0  0  0  0  0  0  0  0  0  0  0
   -1.1960   17.0820   -4.8060 C   0  0  0  0  0  0  0  0  0  0  0  0
   -2.4680   17.0790   -4.8330 N   0  0  0  0  0  0  0  0  0  0  0  0
   -0.5080   15.8920   -4.7960 N   0  0  0  0  0  0  0  0  0  0  0  0
   -3.1530   15.7930   -4.8830 C   0  0  0  0  0  0  0  0  0  0  0  0
   -1.1730   14.6330   -5.0980 C   0  0  0  0  0  0  0  0  0  0  0  0
    0.9110   15.7780   -4.4910 C   0  0  0  0  0  0  0  0  0  0  0  0
   -3.3750   15.3720   -3.4960 C   0  0  0  0  0  0  0  0  0  0  0  0
   -1.0350   13.6610   -3.9400 C   0  0  0  0  0  0  0  0  0  0  0  0
    1.1410   14.7670   -3.3550 C   0  0  0  0  0  0  0  0  0  0  0  0
   -3.6950   15.1650   -2.3660 C   0  0  0  0  0  0  0  0  0  0  0  0
    0.4370   13.4150   -3.6030 C   0  0  0  0  0  0  0  0  0  0  0  0
    0.5540   12.4540   -2.4260 C   0  0  0  0  0  0  0  0  0  0  0  0
   -4.2710   15.1070   -1.0740 C   0  0  0  0  0  0  0  0  0  0  0  0
    0.5900   11.1600   -2.8080 O   0  0  0  0  0  0  0  0  0  0  0  0
    0.6020   12.7770   -1.2440 O   0  0  0  0  0  0  0  0  0  0  0  0
   -3.5310   15.1800    0.0980 C   0  0  0  0  0  0  0  0  0  0  0  0
   -5.6370   14.9840   -0.9840 C   0  0  0  0  0  0  0  0  0  0  0  0
   -4.2190   15.1450    1.3120 C   0  0  0  0  0  0  0  0  0  0  0  0
   -6.3180   14.9410    0.1710 N   0  0  0  0  0  0  0  0  0  0  0  0
   -5.6160   15.0320    1.3060 C   0  0  0  0  0  0  0  0  0  0  0  0
   -6.2900   15.0320    2.5320 N   0  0  0  0  0  0  0  0  0  0  0  0
   -7.7100   14.7260    2.5450 C   0  0  0  0  0  0  0  0  0  0  0  0
   -7.9490   13.3340    3.1020 C   0  0  0  0  0  0  0  0  0  0  0  0
  1  2  1  0
  2  3  2  3
  2  4  1  0
  3  5  1  0
  4  6  1  0
  4  7  1  0
  5  8  1  0
  6  9  1  0
  7 10  1  0
  8 11  3  0
  9 12  1  0
 10 12  1  0
 12 13  1  0
 11 14  1  0
 13 15  1  0
 13 16  2  0
 14 17  2  0
 14 18  1  0
 17 19  1  0
 18 20  2  0
 19 21  2  0
 20 21  1  0
 21 22  1  0
 22 23  1  0
 23 24  1  0
M  END
>  <comRMSD>  (119) 
0.397699

>  <∆∆G>  (119) 
-10.195105

>  <N_constrained_atoms>  (119) 
23.0

>  <LE>  (119) 
-0.424796

>  <ref_pdb>  (119) 
x0104_0

>  <ref_mols>  (119) 
x1012_0_A_α,x0685_0_A_α

>  <%Rank>  (119) 
2.024708

>  <generation_date>  (119) 
nan

>  <method>  (119) 
nan

>  <submitter_email>  (119) 
nan

>  <original SMILES>  (119) 
CCNc1ccc(C#CCN=C(N)N2CCC(C(=O)O)CC2)cn1

>  <ref_url>  (119) 
nan

>  <submitter_name>  (119) 
nan

>  <submitter_institution>  (119) 
nan

$$$$
5CB5_0_G_γ-x0290_0_A_α
     RDKit          3D

 20 21  0  0  0  0  0  0  0  0999 V2000
   -0.5890   12.4700   -3.3930 O   0  0  0  0  0  0  0  0  0  0  0  0
   -1.1710   13.6900   -3.8330 C   0  0  1  0  0  0  0  0  0  0  0  0
   -1.1880   14.8560   -2.7970 C   0  0  2  0  0  0  0  0  0  0  0  0
   -0.3280   14.2690   -4.9850 C   0  0  2  0  0  0  0  0  0  0  0  0
    0.9800   13.6790   -4.9720 O   0  0  0  0  0  0  0  0  0  0  0  0
   -0.1380   15.7560   -3.2280 O   0  0  0  0  0  0  0  0  0  0  0  0
   -0.2970   15.7640   -4.6460 C   0  0  1  0  0  0  0  0  0  0  0  0
   -1.3260   14.7180   -1.2560 C   0  0  0  0  0  0  0  0  0  0  0  0
    0.7700   16.6290   -5.3030 C   0  0  0  0  0  0  0  0  0  0  0  0
   -0.2460   14.6240   -0.3560 C   0  0  0  0  0  0  0  0  0  0  0  0
   -2.6140   14.7010   -0.6720 C   0  0  0  0  0  0  0  0  0  0  0  0
   -0.5120   14.5290    1.0120 C   0  0  0  0  0  0  0  0  0  0  0  0
   -2.8010   14.6030    0.7060 C   0  0  0  0  0  0  0  0  0  0  0  0
   -4.0570   14.5830    1.3160 N   0  0  0  0  0  0  0  0  0  0  0  0
   -1.7490   14.5190    1.5630 N   0  0  0  0  0  0  0  0  0  0  0  0
   -5.3180   14.4200    0.8370 C   0  0  0  0  0  0  0  0  0  0  0  0
   -5.4780   14.5290   -0.3880 O   0  0  0  0  0  0  0  0  0  0  0  0
   -6.5280   14.0980    1.7100 C   0  0  0  0  0  0  0  0  0  0  0  0
   -7.7460   13.8000    0.9320 N   0  0  0  0  0  0  0  0  0  0  0  0
   -8.5910   14.9730    0.7430 C   0  0  0  0  0  0  0  0  0  0  0  0
  2  1  1  1
  2  3  1  0
  2  4  1  0
  4  5  1  1
  3  6  1  0
  4  7  1  0
  6  7  1  0
  3  8  1  1
  7  9  1  6
  8 10  2  0
  8 11  1  0
 10 12  1  0
 11 13  2  0
 13 14  1  0
 12 15  2  0
 13 15  1  0
 14 16  1  0
 16 17  2  0
 16 18  1  0
 18 19  1  0
 19 20  1  0
M  END
>  <comRMSD>  (120) 
0.435779

>  <∆∆G>  (120) 
-7.729891

>  <N_constrained_atoms>  (120) 
20.0

>  <LE>  (120) 
-0.386495

>  <ref_pdb>  (120) 
x0104_0

>  <ref_mols>  (120) 
x0290_0_A_α

>  <%Rank>  (120) 
2.041867

>  <generation_date>  (120) 
nan

>  <method>  (120) 
nan

>  <submitter_email>  (120) 
nan

>  <original SMILES>  (120) 
CNCC(=O)Nc1cc(C2OC(C)C(O)C2O)ccn1

>  <ref_url>  (120) 
nan

>  <submitter_name>  (120) 
nan

>  <submitter_institution>  (120) 
nan

$$$$
x0631_0_A_β-5cms_B_1_B_γ
     RDKit          3D

 17 18  0  0  0  0  0  0  0  0999 V2000
   -0.1920    8.8620   -6.5680 C   0  0  0  0  0  0  0  0  0  0  0  0
   -1.3420    8.2450   -7.3720 C   0  0  0  0  0  0  0  0  0  0  0  0
   -2.4840    9.2170   -7.6090 C   0  0  0  0  0  0  0  0  0  0  0  0
    0.6510    9.8010   -7.3430 N   0  0  0  0  0  0  0  0  0  0  0  0
    0.8080    9.3580   -8.7130 N   0  0  0  0  0  0  0  0  0  0  0  0
    0.0870   11.1250   -7.3340 N   0  0  0  0  0  0  0  0  0  0  0  0
    0.8210   12.0550   -6.3960 C   0  0  0  0  0  0  0  0  0  0  0  0
    0.8210   10.5820   -9.5000 C   0  0  0  0  0  0  0  0  0  0  0  0
    0.1560   11.6020   -8.7030 N   0  0  0  0  0  0  0  0  0  0  0  0
    0.1310   13.3140   -6.1110 O   0  0  0  0  0  0  0  0  0  0  0  0
    0.5530   13.9690   -4.9030 C   0  0  1  0  0  0  0  0  0  0  0  0
   -0.1410   15.3160   -4.6260 C   0  0  2  0  0  0  0  0  0  0  0  0
    0.1490   13.1510   -3.6670 C   0  0  2  0  0  0  0  0  0  0  0  0
   -0.8490   12.1830   -3.9960 O   0  0  0  0  0  0  0  0  0  0  0  0
    0.5130   16.5400   -5.2510 C   0  0  0  0  0  0  0  0  0  0  0  0
   -0.4030   14.1700   -2.6780 C   0  0  0  0  0  0  0  0  0  0  0  0
   -0.0960   15.4620   -3.2040 O   0  0  0  0  0  0  0  0  0  0  0  0
  1  2  1  0
  2  3  1  0
  1  4  1  0
  4  5  1  0
  4  6  1  0
  6  7  1  0
  5  8  1  0
  6  9  1  0
  8  9  1  0
  7 10  1  0
 11 10  1  6
 11 12  1  0
 11 13  1  0
 13 14  1  6
 12 15  1  6
 13 16  1  0
 12 17  1  0
 16 17  1  0
M  END
>  <comRMSD>  (121) 
0.149251

>  <∆∆G>  (121) 
-4.952474

>  <N_constrained_atoms>  (121) 
16.0

>  <LE>  (121) 
-0.291322

>  <ref_pdb>  (121) 
x0104_0

>  <ref_mols>  (121) 
x0631_0_A_β

>  <%Rank>  (121) 
2.059025

>  <generation_date>  (121) 
nan

>  <method>  (121) 
nan

>  <submitter_email>  (121) 
nan

>  <original SMILES>  (121) 
CCCN1NCNN1COC1C(O)COC1C

>  <ref_url>  (121) 
nan

>  <submitter_name>  (121) 
nan

>  <submitter_institution>  (121) 
nan

$$$$
x0864_0_A_α-x0722_0_A_α
     RDKit          3D

 26 27  0  0  0  0  0  0  0  0999 V2000
    1.5510   11.8430   -6.8630 O   0  0  0  0  0  0  0  0  0  0  0  0
    0.5090   11.3540   -6.4520 C   0  0  0  0  0  0  0  0  0  0  0  0
   -0.1490   11.7720   -5.3020 N   0  0  0  0  0  0  0  0  0  0  0  0
   -0.1060   10.2210   -7.1910 C   0  0  0  0  0  0  0  0  0  0  0  0
    0.6320   12.6000   -4.3790 C   0  0  0  0  0  0  0  0  0  0  0  0
   -1.3350   11.1980   -4.8840 C   0  0  0  0  0  0  0  0  0  0  0  0
   -1.2450    9.6780   -6.7520 C   0  0  0  0  0  0  0  0  0  0  0  0
    0.6450   12.0420   -2.9580 C   0  0  0  0  0  0  0  0  0  0  0  0
   -2.0590    8.2510   -7.6370 Br  0  0  0  0  0  0  0  0  0  0  0  0
   -1.8890   10.1820   -5.5640 C   0  0  0  0  0  0  0  0  0  0  0  0
    0.3250   10.7320   -2.8900 O   0  0  0  0  0  0  0  0  0  0  0  0
    0.9320   12.7410   -1.9220 N   0  0  0  0  0  0  0  0  0  0  0  0
    1.2960   14.1410   -1.9780 C   0  0  0  0  0  0  0  0  0  0  0  0
    0.1300   15.0230   -1.5050 C   0  0  0  0  0  0  0  0  0  0  0  0
   -1.2730   14.3910   -1.5940 C   0  0  0  0  0  0  0  0  0  0  0  0
   -2.0930   14.6240   -0.3570 C   0  0  0  0  0  0  0  0  0  0  0  0
   -3.4340   14.9660   -0.1720 C   0  0  0  0  0  0  0  0  0  0  0  0
   -1.5690   14.5170    0.9120 N   0  0  0  0  0  0  0  0  0  0  0  0
   -0.2170   14.1880    1.2850 C   0  0  0  0  0  0  0  0  0  0  0  0
   -4.5120   15.2230   -1.1780 C   0  0  0  0  0  0  0  0  0  0  0  0
   -2.4580   14.7520    1.8730 N   0  0  0  0  0  0  0  0  0  0  0  0
   -3.5860   15.0210    1.2300 C   0  0  0  0  0  0  0  0  0  0  0  0
   -4.8150   15.3270    1.9660 C   0  0  0  0  0  0  0  0  0  0  0  0
   -5.8620   14.6800   -0.7280 C   0  0  0  0  0  0  0  0  0  0  0  0
   -6.9230   15.2960   -0.8320 O   0  0  0  0  0  0  0  0  0  0  0  0
   -5.8430   13.4230   -0.1860 N   0  0  0  0  0  0  0  0  0  0  0  0
  1  2  2  0
  2  3  1  0
  2  4  1  0
  3  5  1  0
  3  6  1  0
  4  7  2  0
  5  8  1  0
  7  9  1  0
  6 10  2  0
  7 10  1  0
  8 11  1  0
  8 12  2  3
 12 13  1  0
 13 14  1  0
 14 15  1  0
 15 16  1  0
 16 17  2  0
 16 18  1  0
 18 19  1  0
 17 20  1  0
 18 21  1  0
 17 22  1  0
 21 22  2  0
 22 23  1  0
 20 24  1  0
 24 25  2  0
 24 26  1  0
M  END
>  <comRMSD>  (122) 
0.27005

>  <∆∆G>  (122) 
-8.679418

>  <N_constrained_atoms>  (122) 
24.0

>  <LE>  (122) 
-0.333824

>  <ref_pdb>  (122) 
x0104_0

>  <ref_mols>  (122) 
x0864_0_A_α,x0722_0_A_α

>  <%Rank>  (122) 
2.076184

>  <generation_date>  (122) 
nan

>  <method>  (122) 
nan

>  <submitter_email>  (122) 
nan

>  <original SMILES>  (122) 
Cc1nn(C)c(CCCN=C(O)Cn2ccc(Br)cc2=O)c1CC(N)=O

>  <ref_url>  (122) 
nan

>  <submitter_name>  (122) 
nan

>  <submitter_institution>  (122) 
nan

$$$$
x0628_0_A_α-x0128_0_A_α
     RDKit          3D

 31 33  0  0  0  0  0  0  0  0999 V2000
   -1.1120    9.0740   -7.1020 C   0  0  0  0  0  0  0  0  0  0  0  0
   -1.0260   10.3140   -6.3040 C   0  0  0  0  0  0  0  0  0  0  0  0
   -2.0110   10.7240   -5.4350 N   0  0  0  0  0  0  0  0  0  0  0  0
    0.0290   11.1260   -6.3750 N   0  0  0  0  0  0  0  0  0  0  0  0
   -0.3050   12.0930   -5.5030 N   0  0  0  0  0  0  0  0  0  0  0  0
   -1.5360   11.8580   -4.9330 C   0  0  0  0  0  0  0  0  0  0  0  0
   -2.1750   12.7680   -3.9170 C   0  0  0  0  0  0  0  0  0  0  0  0
    0.6140   13.1960   -5.2850 C   0  0  0  0  0  0  0  0  0  0  0  0
    1.6680   12.9180   -4.2220 C   0  0  0  0  0  0  0  0  0  0  0  0
   -3.7060   12.6640   -3.8070 C   0  0  0  0  0  0  0  0  0  0  0  0
    1.0810   12.2450   -3.0100 C   0  0  0  0  0  0  0  0  0  0  0  0
   -4.4070   14.0450   -3.7230 C   0  0  0  0  0  0  0  0  0  0  0  0
    0.5530   11.1480   -2.9710 O   0  0  0  0  0  0  0  0  0  0  0  0
    1.1950   12.9860   -1.8950 O   0  0  0  0  0  0  0  0  0  0  0  0
   -3.9150   14.9950   -2.6080 C   0  0  0  0  0  0  0  0  0  0  0  0
   -4.6910   14.9160   -1.3000 C   0  0  0  0  0  0  0  0  0  0  0  0
   -6.0840   14.7320   -1.2640 C   0  0  0  0  0  0  0  0  0  0  0  0
   -4.0070   15.0240   -0.0860 C   0  0  0  0  0  0  0  0  0  0  0  0
   -6.7680   14.6470   -0.0390 C   0  0  0  0  0  0  0  0  0  0  0  0
   -4.6890   14.9400    1.1340 C   0  0  0  0  0  0  0  0  0  0  0  0
   -6.0780   14.7450    1.1700 C   0  0  0  0  0  0  0  0  0  0  0  0
   -6.6800   14.6590    2.4520 N   0  0  0  0  0  0  0  0  0  0  0  0
   -7.8510   15.2140    2.9530 C   0  0  0  0  0  0  0  0  0  0  0  0
   -8.8270   15.5650    2.3020 O   0  0  0  0  0  0  0  0  0  0  0  0
   -7.7080   15.2990    4.3280 N   0  0  0  0  0  0  0  0  0  0  0  0
   -8.4730   16.0420    5.2670 C   0  0  0  0  0  0  0  0  0  0  0  0
   -9.1400   17.1990    4.8460 C   0  0  0  0  0  0  0  0  0  0  0  0
   -8.6210   15.7020    6.6090 C   0  0  0  0  0  0  0  0  0  0  0  0
   -9.9040   17.9900    5.6360 N   0  0  0  0  0  0  0  0  0  0  0  0
   -9.4010   16.4990    7.4530 C   0  0  0  0  0  0  0  0  0  0  0  0
  -10.0160   17.6230    6.9250 C   0  0  0  0  0  0  0  0  0  0  0  0
  1  2  1  0
  2  3  1  0
  2  4  2  0
  4  5  1  0
  3  6  2  0
  5  6  1  0
  6  7  1  0
  5  8  1  0
  8  9  1  0
  7 10  1  0
  9 11  1  0
 10 12  1  0
 11 13  2  0
 11 14  1  0
 12 15  1  0
 15 16  1  0
 16 17  2  0
 16 18  1  0
 17 19  1  0
 18 20  2  0
 19 21  2  0
 20 21  1  0
 21 22  1  0
 22 23  1  0
 23 24  2  0
 23 25  1  0
 25 26  1  0
 26 27  2  0
 26 28  1  0
 27 29  1  0
 28 30  2  0
 29 31  2  0
 30 31  1  0
M  END
>  <comRMSD>  (123) 
0.238498

>  <∆∆G>  (123) 
-8.468775

>  <N_constrained_atoms>  (123) 
28.0

>  <LE>  (123) 
-0.273186

>  <ref_pdb>  (123) 
x0104_0

>  <ref_mols>  (123) 
x0628_0_A_α,x0128_0_A_α

>  <%Rank>  (123) 
2.093342

>  <generation_date>  (123) 
nan

>  <method>  (123) 
nan

>  <submitter_email>  (123) 
nan

>  <original SMILES>  (123) 
Cc1nc(CCCCc2ccc(NC(=O)Nc3cccnc3)cc2)n(CCC(=O)O)n1

>  <ref_url>  (123) 
nan

>  <submitter_name>  (123) 
nan

>  <submitter_institution>  (123) 
nan

$$$$
x0438_0_A_α-x0104_0_A_α
     RDKit          3D

 20 22  0  0  0  0  0  0  0  0999 V2000
   -8.1400   15.5500    3.6590 C   0  0  0  0  0  0  0  0  0  0  0  0
   -9.3790   15.3220    2.3320 S   0  0  0  0  0  0  0  0  0  0  0  0
  -10.6350   14.8530    2.8980 O   0  0  0  0  0  0  0  0  0  0  0  0
   -8.3210   14.7460    4.8550 N   0  0  0  0  0  0  0  0  0  0  0  0
   -8.7530   13.9920    1.3360 C   0  0  0  0  0  0  0  0  0  0  0  0
   -9.4160   16.5000    1.4960 O   0  0  0  0  0  0  0  0  0  0  0  0
   -9.4120   14.8820    5.6410 C   0  0  0  0  0  0  0  0  0  0  0  0
   -7.4100   14.3130    0.8200 C   0  0  0  0  0  0  0  0  0  0  0  0
   -9.3730   15.1340    6.9930 C   0  0  0  0  0  0  0  0  0  0  0  0
  -11.0340   14.7640    5.0930 S   0  0  0  0  0  0  0  0  0  0  0  0
   -7.1730   14.7060   -0.4720 N   0  0  0  0  0  0  0  0  0  0  0  0
   -6.2960   14.2580    1.5050 N   0  0  0  0  0  0  0  0  0  0  0  0
  -10.6720   15.2270    7.5740 C   0  0  0  0  0  0  0  0  0  0  0  0
  -11.6670   15.0430    6.6460 C   0  0  0  0  0  0  0  0  0  0  0  0
   -5.2990   14.6210    0.6380 C   0  0  0  0  0  0  0  0  0  0  0  0
   -5.8270   14.9070   -0.6130 C   0  0  0  0  0  0  0  0  0  0  0  0
   -5.0530   15.2990   -1.6960 C   0  0  0  0  0  0  0  0  0  0  0  0
   -3.9190   14.7250    0.8480 C   0  0  0  0  0  0  0  0  0  0  0  0
   -3.6790   15.3940   -1.4750 C   0  0  0  0  0  0  0  0  0  0  0  0
   -3.1180   15.1110   -0.2240 C   0  0  0  0  0  0  0  0  0  0  0  0
  2  1  1  0
  2  3  2  0
  1  4  1  0
  2  5  1  0
  2  6  2  0
  4  7  1  0
  5  8  1  0
  7  9  2  0
  7 10  1  0
  8 11  1  0
  8 12  2  0
  9 13  1  0
 10 14  1  0
 13 14  2  0
 12 15  1  0
 11 16  1  0
 15 16  2  0
 16 17  1  0
 15 18  1  0
 17 19  2  0
 18 20  2  0
 19 20  1  0
M  END
>  <comRMSD>  (124) 
0.32476

>  <∆∆G>  (124) 
-3.190461

>  <N_constrained_atoms>  (124) 
20.0

>  <LE>  (124) 
-0.159523

>  <ref_pdb>  (124) 
x0104_0

>  <ref_mols>  (124) 
x0438_0_A_α,x0104_0_A_α

>  <%Rank>  (124) 
2.110501

>  <generation_date>  (124) 
nan

>  <method>  (124) 
nan

>  <submitter_email>  (124) 
nan

>  <original SMILES>  (124) 
O=S(=O)(CNc1cccs1)Cc1nc2ccccc2[nH]1

>  <ref_url>  (124) 
nan

>  <submitter_name>  (124) 
nan

>  <submitter_institution>  (124) 
nan

$$$$
x0371_0_A_α-x0574_0_A_α
     RDKit          3D

 19 21  0  0  0  0  0  0  0  0999 V2000
   -7.2170   14.6680    2.5120 N   0  0  0  0  0  0  0  0  0  0  0  0
   -8.2410   15.3500    3.2270 C   0  0  0  0  0  0  0  0  0  0  0  0
   -9.1110   15.9080    2.5420 O   0  0  0  0  0  0  0  0  0  0  0  0
   -6.8980   15.0170    1.1330 O   0  0  0  0  0  0  0  0  0  0  0  0
   -8.3050   15.4150    4.6980 C   0  0  0  0  0  0  0  0  0  0  0  0
   -5.5630   14.9450    0.6330 C   0  0  0  0  0  0  0  0  0  0  0  0
   -7.8550   14.3390    5.4230 O   0  0  0  0  0  0  0  0  0  0  0  0
   -8.7470   16.3770    5.6060 C   0  0  0  0  0  0  0  0  0  0  0  0
   -4.5510   14.7650    1.5580 C   0  0  0  0  0  0  0  0  0  0  0  0
   -5.1950   15.0420   -0.7210 C   0  0  0  0  0  0  0  0  0  0  0  0
   -8.0030   14.6110    6.7430 C   0  0  0  0  0  0  0  0  0  0  0  0
   -8.5520   15.8540    6.9130 C   0  0  0  0  0  0  0  0  0  0  0  0
   -3.2020   14.6490    1.1690 C   0  0  0  0  0  0  0  0  0  0  0  0
   -3.8470   14.9470   -1.1400 C   0  0  0  0  0  0  0  0  0  0  0  0
   -2.8580   14.7400   -0.1650 C   0  0  0  0  0  0  0  0  0  0  0  0
   -2.1510   14.4390    2.0210 N   0  0  0  0  0  0  0  0  0  0  0  0
   -1.0380   14.3530    1.3840 C   0  0  0  0  0  0  0  0  0  0  0  0
   -1.1380   14.5600   -0.3120 S   0  0  0  0  0  0  0  0  0  0  0  0
    0.0870   14.1110    2.0490 N   0  0  0  0  0  0  0  0  0  0  0  0
  1  2  1  0
  2  3  2  0
  1  4  1  0
  2  5  1  0
  4  6  1  0
  5  7  1  0
  5  8  2  0
  6  9  2  0
  6 10  1  0
  7 11  1  0
  8 12  1  0
 11 12  2  0
  9 13  1  0
 10 14  2  0
 13 15  2  0
 14 15  1  0
 13 16  1  0
 16 17  2  0
 15 18  1  0
 17 18  1  0
 17 19  1  0
M  END
>  <comRMSD>  (125) 
0.491527

>  <∆∆G>  (125) 
-10.062451

>  <N_constrained_atoms>  (125) 
19.0

>  <LE>  (125) 
-0.529603

>  <ref_pdb>  (125) 
x0104_0

>  <ref_mols>  (125) 
x0371_0_A_α,x0574_0_A_α

>  <%Rank>  (125) 
2.12766

>  <generation_date>  (125) 
nan

>  <method>  (125) 
nan

>  <submitter_email>  (125) 
nan

>  <original SMILES>  (125) 
Nc1nc2cc(ONC(=O)c3ccco3)ccc2s1

>  <ref_url>  (125) 
nan

>  <submitter_name>  (125) 
nan

>  <submitter_institution>  (125) 
nan

$$$$
x0465_0_A_α-x0724_0_A_α
     RDKit          3D

 30 32  0  0  0  0  0  0  0  0999 V2000
    2.1160   13.1500   -4.7240 C   0  0  0  0  0  0  0  0  0  0  0  0
    0.7520   12.4930   -4.5130 C   0  0  1  0  0  0  0  0  0  0  0  0
    0.6500   11.4850   -5.5370 O   0  0  0  0  0  0  0  0  0  0  0  0
    0.6900   11.8930   -3.0950 C   0  0  0  0  0  0  0  0  0  0  0  0
    0.8970   12.5780   -2.0260 N   0  0  0  0  0  0  0  0  0  0  0  0
    0.3900   10.5800   -3.0190 O   0  0  0  0  0  0  0  0  0  0  0  0
   -0.5620   10.8460   -5.6460 C   0  0  0  0  0  0  0  0  0  0  0  0
    1.2140   14.0010   -2.0690 C   0  0  0  0  0  0  0  0  0  0  0  0
   -0.6730    9.8050   -6.5750 C   0  0  0  0  0  0  0  0  0  0  0  0
   -1.6660   11.1990   -4.8690 C   0  0  0  0  0  0  0  0  0  0  0  0
    0.3760    9.4540   -7.3330 F   0  0  0  0  0  0  0  0  0  0  0  0
    0.0270   14.7280   -1.4350 C   0  0  0  0  0  0  0  0  0  0  0  0
   -1.8660    9.1120   -6.7330 C   0  0  0  0  0  0  0  0  0  0  0  0
   -2.8690   10.5030   -5.0280 C   0  0  0  0  0  0  0  0  0  0  0  0
   -1.2720   14.5960   -2.2500 C   0  0  0  0  0  0  0  0  0  0  0  0
   -2.9690    9.4620   -5.9560 C   0  0  0  0  0  0  0  0  0  0  0  0
   -2.5650   14.6290   -1.4550 C   0  0  0  0  0  0  0  0  0  0  0  0
   -2.5680   14.7270   -0.0530 C   0  0  0  0  0  0  0  0  0  0  0  0
   -3.7950   14.5570   -2.1250 C   0  0  0  0  0  0  0  0  0  0  0  0
   -3.7710   14.7440    0.6620 C   0  0  0  0  0  0  0  0  0  0  0  0
   -4.9980   14.5730   -1.4160 C   0  0  0  0  0  0  0  0  0  0  0  0
   -4.9970   14.6620   -0.0190 C   0  0  0  0  0  0  0  0  0  0  0  0
   -6.2300   14.6680    0.6960 N   0  0  0  0  0  0  0  0  0  0  0  0
   -7.4270   14.3890    0.1080 N   0  0  0  0  0  0  0  0  0  0  0  0
   -6.4000   14.9430    2.0240 C   0  0  0  0  0  0  0  0  0  0  0  0
   -7.7370   14.8500    2.3320 C   0  0  0  0  0  0  0  0  0  0  0  0
   -8.3210   14.5010    1.0960 C   0  0  0  0  0  0  0  0  0  0  0  0
   -8.3820   15.0780    3.6520 C   0  0  0  0  0  0  0  0  0  0  0  0
   -8.6310   13.7920    4.3020 N   0  0  0  0  0  0  0  0  0  0  0  0
   -8.4710   13.9120    5.7440 C   0  0  0  0  0  0  0  0  0  0  0  0
  2  1  1  1
  2  3  1  0
  2  4  1  0
  4  5  2  3
  4  6  1  0
  3  7  1  0
  5  8  1  0
  7  9  2  0
  7 10  1  0
  9 11  1  0
  8 12  1  0
  9 13  1  0
 10 14  2  0
 12 15  1  0
 13 16  2  0
 14 16  1  0
 15 17  1  0
 17 18  2  0
 17 19  1  0
 18 20  1  0
 19 21  2  0
 20 22  2  0
 21 22  1  0
 22 23  1  0
 23 24  1  0
 23 25  1  0
 25 26  2  0
 24 27  2  0
 26 27  1  0
 26 28  1  0
 28 29  1  0
 29 30  1  0
M  END
>  <comRMSD>  (126) 
0.211572

>  <∆∆G>  (126) 
-7.901305

>  <N_constrained_atoms>  (126) 
27.0

>  <LE>  (126) 
-0.263377

>  <ref_pdb>  (126) 
x0104_0

>  <ref_mols>  (126) 
x0465_0_A_α,x0724_0_A_α

>  <%Rank>  (126) 
2.144818

>  <generation_date>  (126) 
nan

>  <method>  (126) 
nan

>  <submitter_email>  (126) 
nan

>  <original SMILES>  (126) 
CNCc1cnn(-c2ccc(CCCN=C(O)[C@@H](C)Oc3ccccc3F)cc2)c1

>  <ref_url>  (126) 
nan

>  <submitter_name>  (126) 
nan

>  <submitter_institution>  (126) 
nan

$$$$
x0253_0_A_α-x0471_0_A_α
     RDKit          3D

 33 35  0  0  0  0  0  0  0  0999 V2000
    0.4620   11.9400   -5.3460 N   0  0  0  0  0  0  0  0  0  0  0  0
    1.0930   11.6830   -6.5310 C   0  0  0  0  0  0  0  0  0  0  0  0
    2.1730   12.1790   -6.7440 O   0  0  0  0  0  0  0  0  0  0  0  0
    1.2850   12.5650   -4.3200 C   0  0  0  0  0  0  0  0  0  0  0  0
    0.6650   12.4130   -2.9480 C   0  0  0  0  0  0  0  0  0  0  0  0
    0.4510   10.7570   -7.5170 C   0  0  0  0  0  0  0  0  0  0  0  0
    0.6390   13.4110   -2.1580 N   0  0  0  0  0  0  0  0  0  0  0  0
    0.1620   11.1790   -2.6940 O   0  0  0  0  0  0  0  0  0  0  0  0
   -0.5370    9.8470   -7.1220 C   0  0  0  0  0  0  0  0  0  0  0  0
    0.8350   10.7850   -8.8660 C   0  0  0  0  0  0  0  0  0  0  0  0
    0.0440   13.4630   -0.8350 C   0  0  0  0  0  0  0  0  0  0  0  0
   -1.1270    8.9830   -8.0550 C   0  0  0  0  0  0  0  0  0  0  0  0
    0.2560    9.9330   -9.7970 C   0  0  0  0  0  0  0  0  0  0  0  0
   -2.1830    8.0110   -7.6220 C   0  0  0  0  0  0  0  0  0  0  0  0
   -0.6070   14.8280   -0.6930 C   0  0  0  0  0  0  0  0  0  0  0  0
   -0.7240    9.0320   -9.3920 C   0  0  0  0  0  0  0  0  0  0  0  0
   -1.5670   14.9100    0.4940 C   0  0  0  0  0  0  0  0  0  0  0  0
   -3.0290   14.9680    0.0850 C   0  0  0  0  0  0  0  0  0  0  0  0
   -3.4750   15.2570   -1.2260 C   0  0  0  0  0  0  0  0  0  0  0  0
   -3.9740   14.7150    1.0750 C   0  0  0  0  0  0  0  0  0  0  0  0
   -5.3370   14.7370    0.7620 C   0  0  0  0  0  0  0  0  0  0  0  0
   -4.8400   15.2890   -1.5590 C   0  0  0  0  0  0  0  0  0  0  0  0
   -6.4130   14.5080    1.5760 N   0  0  0  0  0  0  0  0  0  0  0  0
   -5.7440   15.0170   -0.5330 C   0  0  0  0  0  0  0  0  0  0  0  0
   -7.1190   14.9460   -0.4720 N   0  0  0  0  0  0  0  0  0  0  0  0
   -7.4740   14.6350    0.8250 C   0  0  0  0  0  0  0  0  0  0  0  0
   -8.8860   14.4780    1.2650 C   0  0  0  0  0  0  0  0  0  0  0  0
   -8.8960   14.0680    2.6600 N   0  0  0  0  0  0  0  0  0  0  0  0
   -8.9850   14.9990    3.6760 C   0  0  0  0  0  0  0  0  0  0  0  0
   -9.2920   16.1700    3.4690 O   0  0  0  0  0  0  0  0  0  0  0  0
   -8.6830   14.4330    5.0650 C   0  0  0  0  0  0  0  0  0  0  0  0
   -9.8930   13.6670    5.6030 C   0  0  0  0  0  0  0  0  0  0  0  0
   -8.2790   15.5440    6.0330 C   0  0  0  0  0  0  0  0  0  0  0  0
  1  2  1  0
  2  3  2  0
  1  4  1  0
  4  5  1  0
  2  6  1  0
  5  7  2  3
  5  8  1  0
  6  9  2  0
  6 10  1  0
  7 11  1  0
  9 12  1  0
 10 13  2  0
 12 14  1  0
 11 15  1  0
 12 16  2  0
 13 16  1  0
 15 17  1  0
 17 18  1  0
 18 19  2  0
 18 20  1  0
 20 21  2  0
 19 22  1  0
 21 23  1  0
 21 24  1  0
 22 24  2  0
 24 25  1  0
 23 26  2  0
 25 26  1  0
 26 27  1  0
 27 28  1  0
 28 29  1  0
 29 30  2  0
 29 31  1  0
 31 32  1  0
 31 33  1  0
M  END
>  <comRMSD>  (127) 
0.281031

>  <∆∆G>  (127) 
-8.832576

>  <N_constrained_atoms>  (127) 
30.0

>  <LE>  (127) 
-0.267654

>  <ref_pdb>  (127) 
x0104_0

>  <ref_mols>  (127) 
x0253_0_A_α,x0471_0_A_α

>  <%Rank>  (127) 
2.161977

>  <generation_date>  (127) 
nan

>  <method>  (127) 
nan

>  <submitter_email>  (127) 
nan

>  <original SMILES>  (127) 
Cc1cccc(C(=O)NCC(O)=NCCCc2ccc3[nH]c(CNC(=O)C(C)C)nc3c2)c1

>  <ref_url>  (127) 
nan

>  <submitter_name>  (127) 
nan

>  <submitter_institution>  (127) 
nan

$$$$
x1015_0_A_α-x0159_0_B_β
     RDKit          3D

 27 30  0  0  0  0  0  0  0  0999 V2000
   -1.3980   14.2830   -4.1420 C   0  0  0  0  0  0  0  0  0  0  0  0
   -0.0130   13.6670   -3.9530 C   0  0  2  0  0  0  0  0  0  0  0  0
   -0.0100   12.2020   -3.9660 N   0  0  0  0  0  0  0  0  0  0  0  0
    0.4470   13.9170   -2.5250 C   0  0  0  0  0  0  0  0  0  0  0  0
    0.4390   14.9890   -1.9340 O   0  0  0  0  0  0  0  0  0  0  0  0
    0.4250   11.6950   -2.7350 C   0  0  0  0  0  0  0  0  0  0  0  0
    0.8850   12.7460   -2.0030 N   0  0  0  0  0  0  0  0  0  0  0  0
   -0.4120   11.4300   -5.0870 C   0  0  0  0  0  0  0  0  0  0  0  0
    0.4220   10.5330   -2.3240 O   0  0  0  0  0  0  0  0  0  0  0  0
   -0.1130   11.8320   -6.3880 C   0  0  0  0  0  0  0  0  0  0  0  0
   -1.1190   10.2280   -4.9320 C   0  0  0  0  0  0  0  0  0  0  0  0
   -0.5060   11.0690   -7.4870 C   0  0  0  0  0  0  0  0  0  0  0  0
   -1.5160    9.4620   -6.0260 C   0  0  0  0  0  0  0  0  0  0  0  0
   -1.2120    9.8760   -7.3180 C   0  0  0  0  0  0  0  0  0  0  0  0
   -1.6270    9.0680   -8.5200 C   0  0  0  0  0  0  0  0  0  0  0  0
   -0.7260    9.3680   -9.7230 C   0  0  0  0  0  0  0  0  0  0  0  0
    0.7400    9.6270   -9.3310 C   0  0  0  0  0  0  0  0  0  0  0  0
    1.6250    8.7530  -10.0730 N   0  0  0  0  0  0  0  0  0  0  0  0
    2.3060    9.1740  -11.1610 C   0  0  0  0  0  0  0  0  0  0  0  0
    2.0260   10.3440  -11.8260 N   0  0  0  0  0  0  0  0  0  0  0  0
    3.3100    8.5440  -11.7180 N   0  0  0  0  0  0  0  0  0  0  0  0
    2.9110   10.4730  -12.8670 C   0  0  0  0  0  0  0  0  0  0  0  0
    3.7020    9.3320  -12.7760 C   0  0  0  0  0  0  0  0  0  0  0  0
    3.0860   11.4550  -13.8410 C   0  0  0  0  0  0  0  0  0  0  0  0
    4.7350    9.1360  -13.7060 C   0  0  0  0  0  0  0  0  0  0  0  0
    4.1220   11.2460  -14.7600 C   0  0  0  0  0  0  0  0  0  0  0  0
    4.9330   10.1080  -14.6970 C   0  0  0  0  0  0  0  0  0  0  0  0
  2  1  1  1
  2  3  1  0
  2  4  1  0
  4  5  2  0
  3  6  1  0
  4  7  1  0
  6  7  1  0
  3  8  1  0
  6  9  2  0
  8 10  2  0
  8 11  1  0
 10 12  1  0
 11 13  2  0
 12 14  2  0
 13 14  1  0
 14 15  1  0
 15 16  1  0
 16 17  1  0
 17 18  1  0
 18 19  1  0
 19 20  1  0
 19 21  2  0
 20 22  1  0
 21 23  1  0
 22 23  2  0
 22 24  1  0
 23 25  1  0
 24 26  2  0
 25 27  2  0
 26 27  1  0
M  END
>  <comRMSD>  (128) 
0.281382

>  <∆∆G>  (128) 
-8.13475

>  <N_constrained_atoms>  (128) 
25.0

>  <LE>  (128) 
-0.301287

>  <ref_pdb>  (128) 
x0104_0

>  <ref_mols>  (128) 
x1015_0_A_α,x0159_0_B_β

>  <%Rank>  (128) 
2.179135

>  <generation_date>  (128) 
nan

>  <method>  (128) 
nan

>  <submitter_email>  (128) 
nan

>  <original SMILES>  (128) 
CC1C(=O)NC(=O)N1c1ccc(CCCNc2nc3ccccc3[nH]2)cc1

>  <ref_url>  (128) 
nan

>  <submitter_name>  (128) 
nan

>  <submitter_institution>  (128) 
nan

$$$$
5cb3_0_A_γ-6woj_D_0_D_β
     RDKit          3D

 16 16  0  0  0  0  0  0  0  0999 V2000
   -1.7880   12.8340   -4.1280 O   0  0  0  0  0  0  0  0  0  0  0  0
   -0.5430   13.4550   -3.8650 C   0  0  2  0  0  0  0  0  0  0  0  0
   -0.5900   14.4660   -2.7100 C   0  0  0  0  0  0  0  0  0  0  0  0
   -0.0390   14.2780   -5.0430 C   0  0  2  0  0  0  0  0  0  0  0  0
    1.3870   14.1020   -5.0500 O   0  0  0  0  0  0  0  0  0  0  0  0
   -0.1310   15.7250   -3.2290 O   0  0  0  0  0  0  0  0  0  0  0  0
   -0.5050   15.6690   -4.6100 C   0  0  1  0  0  0  0  0  0  0  0  0
    0.0570   16.8850   -5.3200 C   0  0  0  0  0  0  0  0  0  0  0  0
   -1.1850   18.1470   -5.6910 P   0  0  2  0  0  0  0  0  0  0  0  0
   -0.4200   19.3670   -6.3010 O   0  0  0  0  0  0  0  0  0  0  0  0
   -1.8520   18.5940   -4.4500 O   0  0  0  0  0  0  0  0  0  0  0  0
   -2.2760   17.6340   -6.7710 O   0  0  0  0  0  0  0  0  0  0  0  0
   -0.0510   19.9440   -7.6940 P   0  0  0  0  0  0  0  0  0  0  0  0
   -1.4300   20.5590   -8.1950 O   0  0  0  0  0  0  0  0  0  0  0  0
    1.0940   20.8980   -7.6840 O   0  0  0  0  0  0  0  0  0  0  0  0
    0.0700   18.7030   -8.7060 O   0  0  0  0  0  0  0  0  0  0  0  0
  2  1  1  6
  2  3  1  0
  2  4  1  0
  4  5  1  1
  3  6  1  0
  4  7  1  0
  6  7  1  0
  7  8  1  6
  8  9  1  0
  9 10  1  0
  9 11  2  0
  9 12  1  6
 10 13  1  0
 13 14  1  0
 13 15  2  0
 13 16  1  0
M  END
>  <comRMSD>  (129) 
0.484299

>  <∆∆G>  (129) 
-10.236608

>  <N_constrained_atoms>  (129) 
16.0

>  <LE>  (129) 
-0.639788

>  <ref_pdb>  (129) 
x0104_0

>  <ref_mols>  (129) 


>  <%Rank>  (129) 
2.196294

>  <generation_date>  (129) 
nan

>  <method>  (129) 
nan

>  <submitter_email>  (129) 
nan

>  <original SMILES>  (129) 
O=P(O)(O)OP(=O)(O)CC1OCC(O)C1O

>  <ref_url>  (129) 
nan

>  <submitter_name>  (129) 
nan

>  <submitter_institution>  (129) 
nan

$$$$
6woj_C_0_C_α-6woj_A_0_A_β
     RDKit          3D

 17 17  0  0  0  0  0  0  0  0999 V2000
   -1.5800   21.4900   -7.1720 C   0  0  0  0  0  0  0  0  0  0  0  0
   -0.3590   20.2370   -7.6390 P   0  0  2  0  0  0  0  0  0  0  0  0
   -0.2080   19.1060   -6.5180 O   0  0  0  0  0  0  0  0  0  0  0  0
   -2.8210   21.8720   -7.9890 C   0  0  1  0  0  0  0  0  0  0  0  0
    0.9700   20.8550   -7.8700 O   0  0  0  0  0  0  0  0  0  0  0  0
   -0.8740   19.2810   -8.8140 O   0  0  0  0  0  0  0  0  0  0  0  0
   -3.9360   21.1470   -7.4670 O   0  0  0  0  0  0  0  0  0  0  0  0
   -3.2950   23.3420   -7.8300 C   0  0  1  0  0  0  0  0  0  0  0  0
   -4.1400   23.7940   -8.8990 O   0  0  0  0  0  0  0  0  0  0  0  0
   -1.3670   18.3300   -5.7570 P   0  0  0  0  0  0  0  0  0  0  0  0
   -4.3960   21.8380   -6.2990 C   0  0  1  0  0  0  0  0  0  0  0  0
   -4.0870   23.3330   -6.5080 C   0  0  2  0  0  0  0  0  0  0  0  0
   -5.7790   21.6090   -6.0800 O   0  0  0  0  0  0  0  0  0  0  0  0
   -5.3300   24.0620   -6.6210 O   0  0  0  0  0  0  0  0  0  0  0  0
   -0.7470   16.8940   -5.4270 O   0  0  0  0  0  0  0  0  0  0  0  0
   -1.9350   19.0310   -4.5900 O   0  0  0  0  0  0  0  0  0  0  0  0
   -2.4620   17.9430   -6.8580 O   0  0  0  0  0  0  0  0  0  0  0  0
  1  2  1  0
  2  3  1  0
  4  1  1  1
  2  5  2  0
  2  6  1  6
  4  7  1  0
  4  8  1  0
  8  9  1  6
  3 10  1  0
  7 11  1  0
  8 12  1  0
 11 12  1  0
 11 13  1  6
 12 14  1  6
 10 15  1  0
 10 16  2  0
 10 17  1  0
M  END
>  <comRMSD>  (130) 
0.624503

>  <∆∆G>  (130) 
-14.85889

>  <N_constrained_atoms>  (130) 
17.0

>  <LE>  (130) 
-0.874052

>  <ref_pdb>  (130) 
x0104_0

>  <ref_mols>  (130) 


>  <%Rank>  (130) 
2.213452

>  <generation_date>  (130) 
nan

>  <method>  (130) 
nan

>  <submitter_email>  (130) 
nan

>  <original SMILES>  (130) 
O=P(O)(O)OP(=O)(O)CC1OC(O)C(O)C1O

>  <ref_url>  (130) 
nan

>  <submitter_name>  (130) 
nan

>  <submitter_institution>  (130) 
nan

$$$$
EU0960_0_A_α-5cms_K_10_K_γ
     RDKit          3D

 25 28  0  0  0  0  0  0  0  0999 V2000
   -2.3830    9.9300   -4.9910 C   0  0  0  0  0  0  0  0  0  0  0  0
   -1.2170   10.3000   -5.8460 C   0  0  0  0  0  0  0  0  0  0  0  0
   -0.8500    9.4960   -6.9410 N   0  0  0  0  0  0  0  0  0  0  0  0
   -0.4060   11.3620   -5.7090 C   0  0  0  0  0  0  0  0  0  0  0  0
   -1.8960    8.8390   -7.7430 C   0  0  0  0  0  0  0  0  0  0  0  0
   -0.6000   12.3090   -4.6470 N   0  0  0  0  0  0  0  0  0  0  0  0
    0.5980   11.2630   -6.8190 C   0  0  0  0  0  0  0  0  0  0  0  0
    0.0900   10.2710   -7.6890 N   0  0  0  0  0  0  0  0  0  0  0  0
    1.6190   11.9190   -6.8790 O   0  0  0  0  0  0  0  0  0  0  0  0
    0.5030   12.0610   -3.3190 S   0  0  0  0  0  0  0  0  0  0  0  0
    0.8230    9.6440   -8.7360 C   0  0  0  0  0  0  0  0  0  0  0  0
   -0.4960   13.7710   -4.7410 C   0  0  1  0  0  0  0  0  0  0  0  0
    0.6930   10.6420   -3.1950 O   0  0  0  0  0  0  0  0  0  0  0  0
    0.1430   12.8630   -2.1810 O   0  0  0  0  0  0  0  0  0  0  0  0
    1.7930   12.9440   -4.2540 C   0  0  0  0  0  0  0  0  0  0  0  0
    1.2450   10.3480   -9.8730 C   0  0  0  0  0  0  0  0  0  0  0  0
    1.1450    8.2820   -8.6570 C   0  0  0  0  0  0  0  0  0  0  0  0
   -0.9690   14.6980   -3.6350 C   0  0  0  0  0  0  0  0  0  0  0  0
    0.9940   14.0850   -4.9110 C   0  0  2  0  0  0  0  0  0  0  0  0
    1.9640    9.7130  -10.8920 C   0  0  0  0  0  0  0  0  0  0  0  0
    1.8660    7.6460   -9.6740 C   0  0  0  0  0  0  0  0  0  0  0  0
    0.1790   15.5100   -3.2690 O   0  0  0  0  0  0  0  0  0  0  0  0
    1.0690   15.5120   -4.4030 C   0  0  2  0  0  0  0  0  0  0  0  0
    0.6290   16.6010   -5.3610 C   0  0  0  0  0  0  0  0  0  0  0  0
    2.2770    8.3620  -10.7920 C   0  0  0  0  0  0  0  0  0  0  0  0
  1  2  1  0
  2  3  1  0
  2  4  2  0
  3  5  1  0
  4  6  1  0
  4  7  1  0
  3  8  1  0
  7  8  1  0
  7  9  2  0
 10  6  1  0
  8 11  1  0
  6 12  1  0
 10 13  2  0
 10 14  2  0
 10 15  1  0
 11 16  2  0
 11 17  1  0
 12 18  1  1
 12 19  1  0
 19 15  1  1
 16 20  1  0
 17 21  2  0
 18 22  1  0
 19 23  1  0
 22 23  1  0
 23 24  1  6
 20 25  2  0
 21 25  1  0
M  END
>  <comRMSD>  (131) 
0.480905

>  <∆∆G>  (131) 
-7.446016

>  <N_constrained_atoms>  (131) 
25.0

>  <LE>  (131) 
-0.297841

>  <ref_pdb>  (131) 
x0104_0

>  <ref_mols>  (131) 


>  <%Rank>  (131) 
2.230611

>  <generation_date>  (131) 
nan

>  <method>  (131) 
nan

>  <submitter_email>  (131) 
nan

>  <original SMILES>  (131) 
Cc1c(N2C3COC(C)C3CS2(=O)=O)c(=O)n(-c2ccccc2)n1C

>  <ref_url>  (131) 
nan

>  <submitter_name>  (131) 
nan

>  <submitter_institution>  (131) 
nan

$$$$
5CMS_0_H_γ-6woj_A_0_A_β
     RDKit          3D

 16 16  0  0  0  0  0  0  0  0999 V2000
   -1.8630   12.8380   -4.0110 O   0  0  0  0  0  0  0  0  0  0  0  0
   -0.5680   13.3800   -3.8570 C   0  0  2  0  0  0  0  0  0  0  0  0
   -0.4420   14.3250   -2.6570 C   0  0  0  0  0  0  0  0  0  0  0  0
   -0.1620   14.2490   -5.0370 C   0  0  2  0  0  0  0  0  0  0  0  0
    1.2590   14.0950   -5.1720 O   0  0  0  0  0  0  0  0  0  0  0  0
   -0.0360   15.6050   -3.1660 O   0  0  0  0  0  0  0  0  0  0  0  0
   -0.5600   15.6180   -4.5020 C   0  0  1  0  0  0  0  0  0  0  0  0
    0.0040   16.8190   -5.2160 C   0  0  0  0  0  0  0  0  0  0  0  0
   -1.1570   18.1260   -5.6290 P   0  0  2  0  0  0  0  0  0  0  0  0
   -0.2160   19.1880   -6.2850 O   0  0  0  0  0  0  0  0  0  0  0  0
   -1.8030   18.7200   -4.4350 O   0  0  0  0  0  0  0  0  0  0  0  0
   -2.2450   17.6380   -6.7160 O   0  0  0  0  0  0  0  0  0  0  0  0
   -0.0010   19.8540   -7.6580 P   0  0  0  0  0  0  0  0  0  0  0  0
   -1.4510   20.3990   -8.0340 O   0  0  0  0  0  0  0  0  0  0  0  0
    1.0840   20.8720   -7.6870 O   0  0  0  0  0  0  0  0  0  0  0  0
    0.1470   18.6380   -8.6900 O   0  0  0  0  0  0  0  0  0  0  0  0
  2  1  1  6
  2  3  1  0
  2  4  1  0
  4  5  1  1
  3  6  1  0
  4  7  1  0
  6  7  1  0
  7  8  1  6
  8  9  1  0
  9 10  1  0
  9 11  2  0
  9 12  1  6
 10 13  1  0
 13 14  1  0
 13 15  2  0
 13 16  1  0
M  END
>  <comRMSD>  (132) 
0.488712

>  <∆∆G>  (132) 
-10.337805

>  <N_constrained_atoms>  (132) 
16.0

>  <LE>  (132) 
-0.646113

>  <ref_pdb>  (132) 
x0104_0

>  <ref_mols>  (132) 


>  <%Rank>  (132) 
2.247769

>  <generation_date>  (132) 
nan

>  <method>  (132) 
nan

>  <submitter_email>  (132) 
nan

>  <original SMILES>  (132) 
O=P(O)(O)OP(=O)(O)CC1OCC(O)C1O

>  <ref_url>  (132) 
nan

>  <submitter_name>  (132) 
nan

>  <submitter_institution>  (132) 
nan

$$$$
x0727_0_A_α-EU0844_0_A_α
     RDKit          3D

 32 34  0  0  0  0  0  0  0  0999 V2000
    0.1090   11.4850   -5.5980 N   0  0  0  0  0  0  0  0  0  0  0  0
    0.8210   12.4030   -4.7110 C   0  0  1  0  0  0  0  0  0  0  0  0
    0.3570   13.8620   -4.8620 C   0  0  0  0  0  0  0  0  0  0  0  0
    0.6890   11.1340   -6.7840 C   0  0  0  0  0  0  0  0  0  0  0  0
    1.6510   11.7360   -7.1880 O   0  0  0  0  0  0  0  0  0  0  0  0
    0.7110   11.9070   -3.2660 C   0  0  0  0  0  0  0  0  0  0  0  0
    0.0780    9.9400   -7.5160 C   0  0  0  0  0  0  0  0  0  0  0  0
    0.1150   10.8860   -2.9420 O   0  0  0  0  0  0  0  0  0  0  0  0
    1.3380   12.6950   -2.3620 O   0  0  0  0  0  0  0  0  0  0  0  0
   -1.0370   14.1700   -4.2810 C   0  0  0  0  0  0  0  0  0  0  0  0
   -1.2220   10.3270   -8.2290 C   0  0  0  0  0  0  0  0  0  0  0  0
   -0.2740    8.7600   -6.5940 C   0  0  0  0  0  0  0  0  0  0  0  0
   -0.9420   14.7560   -2.8630 C   0  0  0  0  0  0  0  0  0  0  0  0
   -2.1430    9.1310   -8.0490 C   0  0  0  0  0  0  0  0  0  0  0  0
   -1.7800    8.5800   -6.6820 C   0  0  0  0  0  0  0  0  0  0  0  0
   -2.1670   15.5990   -2.4880 C   0  0  0  0  0  0  0  0  0  0  0  0
   -3.3190   14.7780   -2.2630 O   0  0  0  0  0  0  0  0  0  0  0  0
   -3.9610   14.8400   -1.0540 C   0  0  0  0  0  0  0  0  0  0  0  0
   -5.3530   14.6880   -1.1220 C   0  0  0  0  0  0  0  0  0  0  0  0
   -3.3580   15.0340    0.1860 C   0  0  0  0  0  0  0  0  0  0  0  0
   -6.1620   14.7340    0.0070 C   0  0  0  0  0  0  0  0  0  0  0  0
   -4.1430   15.0810    1.3350 C   0  0  0  0  0  0  0  0  0  0  0  0
   -7.5020   14.5930   -0.1040 N   0  0  0  0  0  0  0  0  0  0  0  0
   -5.5370   14.9380    1.2510 C   0  0  0  0  0  0  0  0  0  0  0  0
   -6.3520   15.0040    2.3830 C   0  0  0  0  0  0  0  0  0  0  0  0
   -8.2810   14.6710    1.0130 C   0  0  0  0  0  0  0  0  0  0  0  0
   -9.7570   14.5240    0.7880 C   0  0  0  0  0  0  0  0  0  0  0  0
   -7.7350   14.8820    2.2770 C   0  0  0  0  0  0  0  0  0  0  0  0
   -8.5280   15.0030    3.5150 C   0  0  0  0  0  0  0  0  0  0  0  0
   -9.5780   15.6440    3.4940 O   0  0  0  0  0  0  0  0  0  0  0  0
   -8.0180   14.4000    4.6380 N   0  0  0  0  0  0  0  0  0  0  0  0
   -8.4060   14.8730    5.9420 C   0  0  0  0  0  0  0  0  0  0  0  0
  1  2  1  0
  2  3  1  1
  1  4  1  0
  4  5  2  0
  2  6  1  0
  4  7  1  0
  6  8  2  0
  6  9  1  0
  3 10  1  0
  7 11  1  0
  7 12  1  0
 10 13  1  0
 11 14  1  0
 12 15  1  0
 14 15  1  0
 13 16  1  0
 16 17  1  0
 17 18  1  0
 18 19  2  0
 18 20  1  0
 19 21  1  0
 20 22  2  0
 21 23  2  0
 21 24  1  0
 22 24  1  0
 24 25  2  0
 23 26  1  0
 26 27  1  0
 25 28  1  0
 26 28  2  0
 28 29  1  0
 29 30  2  0
 29 31  1  0
 31 32  1  0
M  END
>  <comRMSD>  (133) 
0.229412

>  <∆∆G>  (133) 
-6.444238

>  <N_constrained_atoms>  (133) 
29.0

>  <LE>  (133) 
-0.201382

>  <ref_pdb>  (133) 
x0104_0

>  <ref_mols>  (133) 
x0727_0_A_α

>  <%Rank>  (133) 
2.264928

>  <generation_date>  (133) 
nan

>  <method>  (133) 
nan

>  <submitter_email>  (133) 
nan

>  <original SMILES>  (133) 
CNC(=O)c1cc2ccc(OCCCC[C@H](NC(=O)C3CCCC3)C(=O)O)cc2nc1C

>  <ref_url>  (133) 
nan

>  <submitter_name>  (133) 
nan

>  <submitter_institution>  (133) 
nan

$$$$
x0421_0_A_α-x0465_0_A_α
     RDKit          3D

 26 28  0  0  0  0  0  0  0  0999 V2000
   -3.6740   15.1610   -2.8370 N   0  0  0  0  0  0  0  0  0  0  0  0
   -2.8390   14.9110   -1.7780 C   0  0  0  0  0  0  0  0  0  0  0  0
   -1.5840   14.7210   -2.0140 N   0  0  0  0  0  0  0  0  0  0  0  0
   -3.5100   14.8980   -0.4760 C   0  0  0  0  0  0  0  0  0  0  0  0
   -0.6030   14.4490   -0.9550 C   0  0  0  0  0  0  0  0  0  0  0  0
   -2.8910   15.0480    0.7570 C   0  0  0  0  0  0  0  0  0  0  0  0
   -4.8700   14.7280   -0.2820 N   0  0  0  0  0  0  0  0  0  0  0  0
    0.6980   13.8550   -1.5040 C   0  0  0  0  0  0  0  0  0  0  0  0
   -3.8840   14.9620    1.6800 N   0  0  0  0  0  0  0  0  0  0  0  0
   -5.0540   14.7680    1.0180 C   0  0  0  0  0  0  0  0  0  0  0  0
    0.5830   12.4220   -1.7530 N   0  0  0  0  0  0  0  0  0  0  0  0
   -6.4330   14.6080    1.7020 C   0  0  0  0  0  0  0  0  0  0  0  0
    0.6060   11.9100   -2.9360 C   0  0  0  0  0  0  0  0  0  0  0  0
   -7.6970   14.6420    0.8900 C   0  0  0  0  0  0  0  0  0  0  0  0
   -7.2350   13.3520    1.5020 C   0  0  0  0  0  0  0  0  0  0  0  0
    0.7430   12.4710   -4.3730 C   0  0  1  0  0  0  0  0  0  0  0  0
    0.4650   10.5680   -2.9040 O   0  0  0  0  0  0  0  0  0  0  0  0
    2.1120   13.1520   -4.5140 C   0  0  0  0  0  0  0  0  0  0  0  0
    0.6350   11.5030   -5.4170 O   0  0  0  0  0  0  0  0  0  0  0  0
   -0.5000   10.7780   -5.6680 C   0  0  0  0  0  0  0  0  0  0  0  0
   -0.6430    9.7320   -6.5850 C   0  0  0  0  0  0  0  0  0  0  0  0
   -1.6190   11.1480   -4.9110 C   0  0  0  0  0  0  0  0  0  0  0  0
    0.3750    9.3140   -7.3540 F   0  0  0  0  0  0  0  0  0  0  0  0
   -1.8580    9.0700   -6.7420 C   0  0  0  0  0  0  0  0  0  0  0  0
   -2.8420   10.4860   -5.0670 C   0  0  0  0  0  0  0  0  0  0  0  0
   -2.9600    9.4460   -5.9830 C   0  0  0  0  0  0  0  0  0  0  0  0
  1  2  1  0
  2  3  2  3
  2  4  1  0
  3  5  1  0
  4  6  2  0
  4  7  1  0
  5  8  1  0
  6  9  1  0
  7 10  2  0
  9 10  1  0
  8 11  1  0
 10 12  1  0
 11 13  2  3
 12 14  1  0
 12 15  1  0
 14 15  1  0
 13 16  1  0
 13 17  1  0
 16 18  1  1
 16 19  1  0
 19 20  1  0
 20 21  2  0
 20 22  1  0
 21 23  1  0
 21 24  1  0
 22 25  2  0
 24 26  2  0
 25 26  1  0
M  END
>  <comRMSD>  (134) 
0.252527

>  <∆∆G>  (134) 
-7.395883

>  <N_constrained_atoms>  (134) 
24.0

>  <LE>  (134) 
-0.284457

>  <ref_pdb>  (134) 
x0104_0

>  <ref_mols>  (134) 
x0421_0_A_α,x0465_0_A_α

>  <%Rank>  (134) 
2.282086

>  <generation_date>  (134) 
nan

>  <method>  (134) 
nan

>  <submitter_email>  (134) 
nan

>  <original SMILES>  (134) 
C[C@@H](Oc1ccccc1F)C(O)=NCCN=C(N)c1c[nH]c(C2CC2)n1

>  <ref_url>  (134) 
nan

>  <submitter_name>  (134) 
nan

>  <submitter_institution>  (134) 
nan

$$$$
5CB5_0_E_γ-6WOJ_0_C_β
     RDKit          3D

 16 16  0  0  0  0  0  0  0  0999 V2000
   -0.7670   12.3730   -4.0260 O   0  0  0  0  0  0  0  0  0  0  0  0
   -1.0680   13.7260   -4.1190 C   0  0  1  0  0  0  0  0  0  0  0  0
   -0.7270   14.5140   -2.8540 C   0  0  0  0  0  0  0  0  0  0  0  0
   -0.2180   14.4230   -5.1300 C   0  0  2  0  0  0  0  0  0  0  0  0
    1.1070   14.0400   -4.9020 O   0  0  0  0  0  0  0  0  0  0  0  0
   -0.1590   15.7200   -3.3270 O   0  0  0  0  0  0  0  0  0  0  0  0
   -0.5570   15.7710   -4.6470 C   0  0  1  0  0  0  0  0  0  0  0  0
   -0.0750   17.0230   -5.3790 C   0  0  0  0  0  0  0  0  0  0  0  0
   -1.4130   18.0920   -5.7170 P   0  0  0  0  0  0  0  0  0  0  0  0
   -0.6720   19.3610   -6.1310 O   0  0  0  0  0  0  0  0  0  0  0  0
   -1.9150   19.0910   -4.4640 O   0  0  0  0  0  0  0  0  0  0  0  0
   -2.3370   18.0800   -7.0300 O   0  0  0  0  0  0  0  0  0  0  0  0
    0.1020   19.6540   -7.4880 P   0  0  0  0  0  0  0  0  0  0  0  0
   -1.0310   20.5080   -8.0690 O   0  0  0  0  0  0  0  0  0  0  0  0
    1.1410   20.9790   -7.6080 O   0  0  0  0  0  0  0  0  0  0  0  0
    0.0700   18.5450   -8.7000 O   0  0  0  0  0  0  0  0  0  0  0  0
  2  1  1  1
  2  3  1  0
  2  4  1  0
  4  5  1  1
  3  6  1  0
  4  7  1  0
  6  7  1  0
  7  8  1  6
  8  9  1  0
  9 10  1  0
  9 11  1  0
  9 12  1  0
 10 13  1  0
 13 14  1  0
 13 15  1  0
 13 16  1  0
M  CHG  2  11  -1  15  -1
M  END
>  <comRMSD>  (135) 
0.427994

>  <∆∆G>  (135) 
-8.320445

>  <N_constrained_atoms>  (135) 
16.0

>  <LE>  (135) 
-0.520028

>  <ref_pdb>  (135) 
x0104_0

>  <ref_mols>  (135) 


>  <%Rank>  (135) 
2.299245

>  <generation_date>  (135) 
nan

>  <method>  (135) 
nan

>  <submitter_email>  (135) 
nan

>  <original SMILES>  (135) 
[O-][PH](O)(O)O[PH]([O-])(O)CC1OCC(O)C1O

>  <ref_url>  (135) 
nan

>  <submitter_name>  (135) 
nan

>  <submitter_institution>  (135) 
nan

$$$$
x0852_0_B_α-x0104_0_A_β
     RDKit          3D

 19 20  0  0  0  0  0  0  0  0999 V2000
   -9.6160   17.3370    7.3340 N   0  0  0  0  0  0  0  0  0  0  0  0
   -9.4480   16.9190    6.2630 C   0  0  0  0  0  0  0  0  0  0  0  0
   -9.2680   16.4810    4.9130 C   0  0  0  0  0  0  0  0  0  0  0  0
   -8.2170   15.6260    4.5320 C   0  0  0  0  0  0  0  0  0  0  0  0
  -10.1800   16.9320    3.9520 C   0  0  0  0  0  0  0  0  0  0  0  0
   -7.2910   15.1420    5.4260 O   0  0  0  0  0  0  0  0  0  0  0  0
   -8.0850   15.2430    3.1700 C   0  0  0  0  0  0  0  0  0  0  0  0
  -10.0390   16.5320    2.6300 C   0  0  0  0  0  0  0  0  0  0  0  0
  -11.2380   17.1160    1.2940 Br  0  0  0  0  0  0  0  0  0  0  0  0
   -7.0500   14.4300    2.6760 N   0  0  0  0  0  0  0  0  0  0  0  0
   -9.0120   15.7030    2.2530 C   0  0  0  0  0  0  0  0  0  0  0  0
   -6.4400   14.5480    1.4090 C   0  0  0  0  0  0  0  0  0  0  0  0
   -5.0460   14.6360    1.2350 C   0  0  0  0  0  0  0  0  0  0  0  0
   -7.1960   14.5910    0.2420 C   0  0  0  0  0  0  0  0  0  0  0  0
   -4.4130   14.7560    0.0300 N   0  0  0  0  0  0  0  0  0  0  0  0
   -6.5900   14.7170   -0.9990 C   0  0  0  0  0  0  0  0  0  0  0  0
   -5.2160   14.7950   -1.0600 C   0  0  0  0  0  0  0  0  0  0  0  0
   -4.7060   14.9190   -2.3390 O   0  0  0  0  0  0  0  0  0  0  0  0
   -3.2920   15.0080   -2.3980 C   0  0  0  0  0  0  0  0  0  0  0  0
  1  2  3  0
  2  3  1  0
  3  4  2  0
  3  5  1  0
  4  6  1  0
  4  7  1  0
  5  8  2  0
  8  9  1  0
  7 10  1  0
  7 11  2  0
  8 11  1  0
 10 12  1  0
 12 13  2  0
 12 14  1  0
 13 15  1  0
 14 16  2  0
 15 17  2  0
 16 17  1  0
 17 18  1  0
 18 19  1  0
M  END
>  <comRMSD>  (136) 
0.427856

>  <∆∆G>  (136) 
-7.407744

>  <N_constrained_atoms>  (136) 
19.0

>  <LE>  (136) 
-0.389881

>  <ref_pdb>  (136) 
x0104_0

>  <ref_mols>  (136) 
x0852_0_B_α,x0104_0_A_β

>  <%Rank>  (136) 
2.316404

>  <generation_date>  (136) 
nan

>  <method>  (136) 
nan

>  <submitter_email>  (136) 
nan

>  <original SMILES>  (136) 
COc1ccc(Nc2cc(Br)cc(C#N)c2O)cn1

>  <ref_url>  (136) 
nan

>  <submitter_name>  (136) 
nan

>  <submitter_institution>  (136) 
nan

$$$$
x1015_0_A_α-x0722_0_A_α
     RDKit          3D

 28 30  0  0  0  0  0  0  0  0999 V2000
   -1.1840   14.2880   -4.0860 C   0  0  0  0  0  0  0  0  0  0  0  0
    0.0690   13.4190   -3.9770 C   0  0  2  0  0  0  0  0  0  0  0  0
   -0.2040   11.9830   -3.9780 N   0  0  0  0  0  0  0  0  0  0  0  0
    0.7650   13.3790   -2.6100 C   0  0  0  0  0  0  0  0  0  0  0  0
    0.6980   14.1310   -1.6170 N   0  0  0  0  0  0  0  0  0  0  0  0
    0.5140   11.3980   -2.9280 C   0  0  0  0  0  0  0  0  0  0  0  0
    1.4800   12.2880   -2.6380 N   0  0  0  0  0  0  0  0  0  0  0  0
   -0.5860   11.2700   -5.1210 C   0  0  0  0  0  0  0  0  0  0  0  0
    0.3640   10.3440   -2.3280 O   0  0  0  0  0  0  0  0  0  0  0  0
   -0.2040   15.2040   -1.6890 C   0  0  0  0  0  0  0  0  0  0  0  0
   -0.0040   11.5290   -6.3690 C   0  0  0  0  0  0  0  0  0  0  0  0
   -1.5560   10.2710   -5.0320 C   0  0  0  0  0  0  0  0  0  0  0  0
   -1.6180   14.5820   -1.6680 C   0  0  0  0  0  0  0  0  0  0  0  0
   -0.3850   10.8040   -7.4980 C   0  0  0  0  0  0  0  0  0  0  0  0
   -1.9430    9.5430   -6.1530 C   0  0  0  0  0  0  0  0  0  0  0  0
   -1.3570    9.8090   -7.3840 C   0  0  0  0  0  0  0  0  0  0  0  0
   -2.2570   14.8030   -0.3510 C   0  0  0  0  0  0  0  0  0  0  0  0
   -1.8430    8.9060   -8.7600 Cl  0  0  0  0  0  0  0  0  0  0  0  0
   -3.5370   15.2160   -0.0100 C   0  0  0  0  0  0  0  0  0  0  0  0
   -1.5820   14.6210    0.8320 N   0  0  0  0  0  0  0  0  0  0  0  0
   -0.2260   14.2030    1.0750 C   0  0  0  0  0  0  0  0  0  0  0  0
   -4.7170   15.5610   -0.8740 C   0  0  0  0  0  0  0  0  0  0  0  0
   -2.3180   14.8880    1.8830 N   0  0  0  0  0  0  0  0  0  0  0  0
   -3.4800   15.2600    1.3940 C   0  0  0  0  0  0  0  0  0  0  0  0
   -4.4950   15.6660    2.3350 C   0  0  0  0  0  0  0  0  0  0  0  0
   -5.9740   14.7260   -0.6490 C   0  0  0  0  0  0  0  0  0  0  0  0
   -7.0970   15.1670   -0.8740 O   0  0  0  0  0  0  0  0  0  0  0  0
   -5.8510   13.4500   -0.1770 N   0  0  0  0  0  0  0  0  0  0  0  0
  2  1  1  1
  2  3  1  0
  2  4  1  0
  4  5  2  3
  3  6  1  0
  4  7  1  0
  6  7  1  0
  3  8  1  0
  6  9  2  0
  5 10  1  0
  8 11  2  0
  8 12  1  0
 10 13  1  0
 11 14  1  0
 12 15  2  0
 14 16  2  0
 15 16  1  0
 13 17  1  0
 16 18  1  0
 17 19  2  0
 17 20  1  0
 20 21  1  0
 19 22  1  0
 20 23  1  0
 19 24  1  0
 23 24  2  0
 24 25  1  0
 22 26  1  0
 26 27  2  0
 26 28  1  0
M  END
>  <comRMSD>  (137) 
0.423172

>  <∆∆G>  (137) 
-8.487456

>  <N_constrained_atoms>  (137) 
27.0

>  <LE>  (137) 
-0.303123

>  <ref_pdb>  (137) 
x0104_0

>  <ref_mols>  (137) 
x1015_0_A_α,x0722_0_A_α

>  <%Rank>  (137) 
2.333562

>  <generation_date>  (137) 
nan

>  <method>  (137) 
nan

>  <submitter_email>  (137) 
nan

>  <original SMILES>  (137) 
Cc1nn(C)c(CCN=C2NC(=O)N(c3ccc(Cl)cc3)C2C)c1CC(N)=O

>  <ref_url>  (137) 
nan

>  <submitter_name>  (137) 
nan

>  <submitter_institution>  (137) 
nan

$$$$
x0969_0_A_α-x0128_0_A_α
     RDKit          3D

 19 21  0  0  0  0  0  0  0  0999 V2000
   -6.8250   14.6380    2.4870 N   0  0  0  0  0  0  0  0  0  0  0  0
   -7.8720   15.1940    3.1620 C   0  0  0  0  0  0  0  0  0  0  0  0
   -8.8830   15.4880    2.5290 O   0  0  0  0  0  0  0  0  0  0  0  0
   -6.5470   14.7210    1.1480 C   0  0  0  0  0  0  0  0  0  0  0  0
   -7.6880   15.3850    4.5060 N   0  0  0  0  0  0  0  0  0  0  0  0
   -7.4920   14.6620    0.2360 N   0  0  0  0  0  0  0  0  0  0  0  0
   -5.3150   14.8800    0.5190 N   0  0  0  0  0  0  0  0  0  0  0  0
   -6.9190   14.7790   -1.0040 N   0  0  0  0  0  0  0  0  0  0  0  0
   -5.6260   14.9090   -0.8350 C   0  0  0  0  0  0  0  0  0  0  0  0
   -4.0060   14.9950    0.9940 C   0  0  0  0  0  0  0  0  0  0  0  0
   -8.4970   16.1220    5.3940 C   0  0  0  0  0  0  0  0  0  0  0  0
   -4.5580   15.0600   -1.7600 C   0  0  0  0  0  0  0  0  0  0  0  0
   -3.0000   15.1250    0.1200 C   0  0  0  0  0  0  0  0  0  0  0  0
   -9.1540   17.2620    4.9290 C   0  0  0  0  0  0  0  0  0  0  0  0
   -8.6900   15.7850    6.7290 C   0  0  0  0  0  0  0  0  0  0  0  0
   -3.3010   15.1570   -1.3010 C   0  0  0  0  0  0  0  0  0  0  0  0
   -9.9540   18.0490    5.6800 N   0  0  0  0  0  0  0  0  0  0  0  0
   -9.5090   16.5790    7.5310 C   0  0  0  0  0  0  0  0  0  0  0  0
  -10.1140   17.6910    6.9670 C   0  0  0  0  0  0  0  0  0  0  0  0
  1  2  1  0
  2  3  2  0
  1  4  1  0
  2  5  1  0
  4  6  2  0
  4  7  1  0
  6  8  1  0
  7  9  1  0
  8  9  2  0
  7 10  1  0
  5 11  1  0
  9 12  1  0
 10 13  2  0
 11 14  2  0
 11 15  1  0
 12 16  2  0
 13 16  1  0
 14 17  1  0
 15 18  2  0
 17 19  2  0
 18 19  1  0
M  END
>  <comRMSD>  (138) 
0.405656

>  <∆∆G>  (138) 
-6.46964

>  <N_constrained_atoms>  (138) 
19.0

>  <LE>  (138) 
-0.340507

>  <ref_pdb>  (138) 
x0104_0

>  <ref_mols>  (138) 
x0969_0_A_α,x0128_0_A_α

>  <%Rank>  (138) 
2.350721

>  <generation_date>  (138) 
nan

>  <method>  (138) 
nan

>  <submitter_email>  (138) 
nan

>  <original SMILES>  (138) 
O=C(Nc1cccnc1)Nc1nnc2ccccn12

>  <ref_url>  (138) 
nan

>  <submitter_name>  (138) 
nan

>  <submitter_institution>  (138) 
nan

$$$$
MAC-102_0_A_α-x0299_0_A_α
     RDKit          3D

 31 34  0  0  0  0  0  0  0  0999 V2000
   15.8400   -1.1650    0.2820 C   0  0  0  0  0  0  0  0  0  0  0  0
   14.6760   -0.5030    0.9660 C   0  0  0  0  0  0  0  0  0  0  0  0
   14.8140   -0.0620    2.2910 C   0  0  0  0  0  0  0  0  0  0  0  0
   13.4460   -0.3260    0.2890 C   0  0  0  0  0  0  0  0  0  0  0  0
   12.3560    0.2810    0.9250 C   0  0  0  0  0  0  0  0  0  0  0  0
   13.7220    0.5330    2.8930 C   0  0  0  0  0  0  0  0  0  0  0  0
   10.7320    0.4880   -0.0110 Br  0  0  0  0  0  0  0  0  0  0  0  0
   12.5070    0.7070    2.2370 C   0  0  0  0  0  0  0  0  0  0  0  0
   13.5820    1.0720    4.2500 C   0  0  0  0  0  0  0  0  0  0  0  0
   14.5580    1.0730    5.1250 N   0  0  0  0  0  0  0  0  0  0  0  0
   11.5740    1.3250    3.0730 N   0  0  0  0  0  0  0  0  0  0  0  0
   12.1120    1.5670    4.3270 C   0  0  0  0  0  0  0  0  0  0  0  0
   11.5550    2.0560    5.2830 O   0  0  0  0  0  0  0  0  0  0  0  0
   14.3280    1.6170    6.4800 C   0  0  0  0  0  0  0  0  0  0  0  0
   15.6380    1.9670    7.2450 C   0  0  0  0  0  0  0  0  0  0  0  0
   15.3240    2.9260    8.3800 C   0  0  0  0  0  0  0  0  0  0  0  0
   14.7880    2.4600    9.5840 C   0  0  0  0  0  0  0  0  0  0  0  0
   15.5510    4.3020    8.2270 C   0  0  0  0  0  0  0  0  0  0  0  0
   15.1990    5.1970    9.2530 C   0  0  0  0  0  0  0  0  0  0  0  0
   14.4510    3.3310   10.6360 C   0  0  0  0  0  0  0  0  0  0  0  0
   15.2910    6.5840    9.2940 N   0  0  0  0  0  0  0  0  0  0  0  0
   14.6620    4.6970   10.4220 C   0  0  0  0  0  0  0  0  0  0  0  0
   14.4300    5.8110   11.1900 N   0  0  0  0  0  0  0  0  0  0  0  0
   14.8150    6.9210   10.4700 C   0  0  0  0  0  0  0  0  0  0  0  0
   14.6900    8.3080   10.9840 C   0  0  0  0  0  0  0  0  0  0  0  0
   14.1560    8.2540   12.3260 N   0  0  0  0  0  0  0  0  0  0  0  0
   14.8950    8.4180   13.4590 C   0  0  0  0  0  0  0  0  0  0  0  0
   16.0830    8.7180   13.3650 O   0  0  0  0  0  0  0  0  0  0  0  0
   14.1920    8.2160   14.7900 C   0  0  0  0  0  0  0  0  0  0  0  0
   15.0830    7.5580   15.8420 C   0  0  0  0  0  0  0  0  0  0  0  0
   15.8910    8.5650   16.6460 C   0  0  0  0  0  0  0  0  0  0  0  0
  1  2  1  0
  2  3  2  0
  2  4  1  0
  4  5  2  0
  3  6  1  0
  5  7  1  0
  5  8  1  0
  6  8  2  0
  6  9  1  0
  9 10  2  3
  8 11  1  0
  9 12  1  0
 11 12  1  0
 12 13  2  0
 10 14  1  0
 14 15  1  0
 15 16  1  0
 16 17  2  0
 16 18  1  0
 18 19  2  0
 17 20  1  0
 19 21  1  0
 19 22  1  0
 20 22  2  0
 22 23  1  0
 21 24  2  0
 23 24  1  0
 24 25  1  0
 25 26  1  0
 26 27  1  0
 27 28  2  0
 27 29  1  0
 29 30  1  0
 30 31  1  0
M  END
>  <comRMSD>  (139) 
0.292366

>  <∆∆G>  (139) 
-4.473645

>  <N_constrained_atoms>  (139) 
29.0

>  <LE>  (139) 
-0.144311

>  <ref_pdb>  (139) 
x0104_0

>  <ref_mols>  (139) 
x0299_0_A_α

>  <%Rank>  (139) 
2.367879

>  <generation_date>  (139) 
nan

>  <method>  (139) 
nan

>  <submitter_email>  (139) 
nan

>  <original SMILES>  (139) 
CCCC(=O)NCc1nc2cc(CCN=C3C(=O)Nc4c(Br)cc(C)cc43)ccc2[nH]1

>  <ref_url>  (139) 
nan

>  <submitter_name>  (139) 
nan

>  <submitter_institution>  (139) 
nan

$$$$
x0689_0_A_α-x0587_0_A_α
     RDKit          3D

 20 21  0  0  0  0  0  0  0  0999 V2000
   -3.2720   15.3440    1.5730 N   0  0  0  0  0  0  0  0  0  0  0  0
   -2.5290   14.3220    0.8800 C   0  0  2  0  0  0  0  0  0  0  0  0
   -1.3120   14.2930    1.6500 N   0  0  0  0  0  0  0  0  0  0  0  0
   -2.4030   14.4220   -0.5810 N   0  0  0  0  0  0  0  0  0  0  0  0
   -1.1510   14.3050   -1.1490 C   0  0  0  0  0  0  0  0  0  0  0  0
   -0.2610   15.0300    0.9700 C   0  0  0  0  0  0  0  0  0  0  0  0
   -3.3550   15.2540   -1.2080 O   0  0  0  0  0  0  0  0  0  0  0  0
   -0.0640   14.5880   -0.4330 C   0  0  0  0  0  0  0  0  0  0  0  0
   -4.5910   14.5450   -1.4990 C   0  0  0  0  0  0  0  0  0  0  0  0
   -4.2920   13.2870   -1.9430 F   0  0  0  0  0  0  0  0  0  0  0  0
   -5.0860   15.1810   -2.6040 F   0  0  0  0  0  0  0  0  0  0  0  0
   -5.6010   14.6060   -0.3310 C   0  0  0  0  0  0  0  0  0  0  0  0
   -6.9350   14.5500   -0.6100 N   0  0  0  0  0  0  0  0  0  0  0  0
   -5.1260   14.7190    0.9330 N   0  0  0  0  0  0  0  0  0  0  0  0
   -7.7920   14.6290    0.4390 C   0  0  0  0  0  0  0  0  0  0  0  0
   -6.0280   14.7920    1.9400 C   0  0  0  0  0  0  0  0  0  0  0  0
   -7.3870   14.7580    1.7490 C   0  0  0  0  0  0  0  0  0  0  0  0
   -8.3040   14.8710    2.8980 C   0  0  0  0  0  0  0  0  0  0  0  0
   -7.7680   15.0620    4.1440 N   0  0  0  0  0  0  0  0  0  0  0  0
   -9.5150   14.8170    2.7320 O   0  0  0  0  0  0  0  0  0  0  0  0
  2  1  1  1
  2  3  1  0
  2  4  1  0
  4  5  1  0
  3  6  1  0
  4  7  1  0
  5  8  2  0
  6  8  1  0
  7  9  1  0
  9 10  1  0
  9 11  1  0
  9 12  1  0
 12 13  2  0
 12 14  1  0
 13 15  1  0
 14 16  2  0
 15 17  2  0
 16 17  1  0
 17 18  1  0
 18 19  1  0
 18 20  2  0
M  END
>  <comRMSD>  (140) 
0.337124

>  <∆∆G>  (140) 
-3.287632

>  <N_constrained_atoms>  (140) 
20.0

>  <LE>  (140) 
-0.164382

>  <ref_pdb>  (140) 
x0104_0

>  <ref_mols>  (140) 
x0689_0_A_α,x0587_0_A_α

>  <%Rank>  (140) 
2.385038

>  <generation_date>  (140) 
nan

>  <method>  (140) 
nan

>  <submitter_email>  (140) 
nan

>  <original SMILES>  (140) 
NC(=O)c1cnc(C(F)(F)ON2C=CCNC2N)nc1

>  <ref_url>  (140) 
nan

>  <submitter_name>  (140) 
nan

>  <submitter_institution>  (140) 
nan

$$$$
x0852_0_B_α-x0969_0_A_α
     RDKit          3D

 20 22  0  0  0  0  0  0  0  0999 V2000
   -9.5900   17.3170    7.3410 N   0  0  0  0  0  0  0  0  0  0  0  0
   -9.3990   16.9090    6.2720 C   0  0  0  0  0  0  0  0  0  0  0  0
   -9.2300   16.4690    4.9170 C   0  0  0  0  0  0  0  0  0  0  0  0
   -8.1950   15.6010    4.5070 C   0  0  0  0  0  0  0  0  0  0  0  0
  -10.1460   16.9390    3.9730 C   0  0  0  0  0  0  0  0  0  0  0  0
   -7.3030   15.1370    5.4410 O   0  0  0  0  0  0  0  0  0  0  0  0
   -8.0860   15.2200    3.1360 C   0  0  0  0  0  0  0  0  0  0  0  0
  -10.0370   16.5510    2.6460 C   0  0  0  0  0  0  0  0  0  0  0  0
  -11.2500   17.1620    1.3360 Br  0  0  0  0  0  0  0  0  0  0  0  0
   -7.0670   14.3760    2.5970 N   0  0  0  0  0  0  0  0  0  0  0  0
   -9.0250   15.7070    2.2390 C   0  0  0  0  0  0  0  0  0  0  0  0
   -6.6910   14.5290    1.2720 C   0  0  0  0  0  0  0  0  0  0  0  0
   -7.5610   14.4730    0.2860 N   0  0  0  0  0  0  0  0  0  0  0  0
   -5.4210   14.7650    0.7140 N   0  0  0  0  0  0  0  0  0  0  0  0
   -6.9300   14.6600   -0.9100 N   0  0  0  0  0  0  0  0  0  0  0  0
   -5.6590   14.8320   -0.6640 C   0  0  0  0  0  0  0  0  0  0  0  0
   -4.1400   14.9210    1.2490 C   0  0  0  0  0  0  0  0  0  0  0  0
   -4.5640   15.0560   -1.5320 C   0  0  0  0  0  0  0  0  0  0  0  0
   -3.0990   15.1270    0.4220 C   0  0  0  0  0  0  0  0  0  0  0  0
   -3.3350   15.1890   -1.0140 C   0  0  0  0  0  0  0  0  0  0  0  0
  1  2  3  0
  2  3  1  0
  3  4  2  0
  3  5  1  0
  4  6  1  0
  4  7  1  0
  5  8  2  0
  8  9  1  0
  7 10  1  0
  7 11  2  0
  8 11  1  0
 10 12  1  0
 12 13  2  0
 12 14  1  0
 13 15  1  0
 14 16  1  0
 15 16  2  0
 14 17  1  0
 16 18  1  0
 17 19  2  0
 18 20  2  0
 19 20  1  0
M  END
>  <comRMSD>  (141) 
0.450918

>  <∆∆G>  (141) 
-7.832301

>  <N_constrained_atoms>  (141) 
20.0

>  <LE>  (141) 
-0.391615

>  <ref_pdb>  (141) 
x0104_0

>  <ref_mols>  (141) 
x0852_0_B_α,x0969_0_A_α

>  <%Rank>  (141) 
2.402196

>  <generation_date>  (141) 
nan

>  <method>  (141) 
nan

>  <submitter_email>  (141) 
nan

>  <original SMILES>  (141) 
N#Cc1cc(Br)cc(Nc2nnc3ccccn23)c1O

>  <ref_url>  (141) 
nan

>  <submitter_name>  (141) 
nan

>  <submitter_institution>  (141) 
nan

$$$$
x0926_0_A_α-x1015_0_A_α
     RDKit          3D

 24 26  0  0  0  0  0  0  0  0999 V2000
   -6.7930   15.0360   -0.4570 O   0  0  0  0  0  0  0  0  0  0  0  0
   -5.5690   15.1160   -0.3450 C   0  0  0  0  0  0  0  0  0  0  0  0
   -4.8740   14.9650    1.0060 C   0  0  0  0  0  0  0  0  0  0  0  0
   -4.7880   15.3380   -1.4490 N   0  0  0  0  0  0  0  0  0  0  0  0
   -3.3970   15.4910   -1.3580 N   0  0  0  0  0  0  0  0  0  0  0  0
   -3.4380   15.3610    1.0150 C   0  0  0  0  0  0  0  0  0  0  0  0
   -2.6880   15.6500   -2.6310 C   0  0  0  0  0  0  0  0  0  0  0  0
   -2.7980   15.6000   -0.1270 C   0  0  0  0  0  0  0  0  0  0  0  0
   -2.3410   14.2970   -3.2520 C   0  0  0  0  0  0  0  0  0  0  0  0
   -1.2370   14.4080   -4.3150 C   0  0  0  0  0  0  0  0  0  0  0  0
    0.0570   13.6460   -3.9790 C   0  0  2  0  0  0  0  0  0  0  0  0
   -0.0720   12.1960   -3.9350 N   0  0  0  0  0  0  0  0  0  0  0  0
    0.5040   13.9200   -2.5480 C   0  0  0  0  0  0  0  0  0  0  0  0
    0.6250   15.0160   -2.0200 O   0  0  0  0  0  0  0  0  0  0  0  0
    0.3150   11.6910   -2.6860 C   0  0  0  0  0  0  0  0  0  0  0  0
    0.7580   12.7390   -1.9390 N   0  0  0  0  0  0  0  0  0  0  0  0
   -0.4780   11.4130   -5.0430 C   0  0  0  0  0  0  0  0  0  0  0  0
    0.2890   10.5300   -2.2760 O   0  0  0  0  0  0  0  0  0  0  0  0
    0.0870   11.6110   -6.3110 C   0  0  0  0  0  0  0  0  0  0  0  0
   -1.4530   10.4180   -4.9010 C   0  0  0  0  0  0  0  0  0  0  0  0
   -0.3120   10.8370   -7.4060 C   0  0  0  0  0  0  0  0  0  0  0  0
   -1.8520    9.6390   -5.9910 C   0  0  0  0  0  0  0  0  0  0  0  0
   -1.2810    9.8520   -7.2370 C   0  0  0  0  0  0  0  0  0  0  0  0
   -1.7750    8.8950   -8.5770 Cl  0  0  0  0  0  0  0  0  0  0  0  0
  1  2  2  0
  2  3  1  0
  2  4  1  0
  4  5  1  0
  3  6  1  0
  5  7  1  0
  5  8  1  0
  6  8  2  0
  7  9  1  0
  9 10  1  0
 11 10  1  1
 11 12  1  0
 11 13  1  0
 13 14  2  0
 12 15  1  0
 13 16  1  0
 15 16  1  0
 12 17  1  0
 15 18  2  0
 17 19  2  0
 17 20  1  0
 19 21  1  0
 20 22  2  0
 21 23  2  0
 22 23  1  0
 23 24  1  0
M  END
>  <comRMSD>  (142) 
0.208877

>  <∆∆G>  (142) 
-6.949938

>  <N_constrained_atoms>  (142) 
22.0

>  <LE>  (142) 
-0.289581

>  <ref_pdb>  (142) 
x0104_0

>  <ref_mols>  (142) 
x0926_0_A_α,x1015_0_A_α

>  <%Rank>  (142) 
2.419355

>  <generation_date>  (142) 
nan

>  <method>  (142) 
nan

>  <submitter_email>  (142) 
nan

>  <original SMILES>  (142) 
O=C1CC=CN(CCCC2C(=O)NC(=O)N2c2ccc(Cl)cc2)N1

>  <ref_url>  (142) 
nan

>  <submitter_name>  (142) 
nan

>  <submitter_institution>  (142) 
nan

$$$$
x0091_0_B_α-x0796_0_B_α
     RDKit          3D

 33 37  0  0  0  0  0  0  0  0999 V2000
   12.7380   21.0810   13.6580 N   0  0  0  0  0  0  0  0  0  0  0  0
   12.1960   21.9880   14.6510 C   0  0  0  0  0  0  0  0  0  0  0  0
   12.1610   19.7420   13.6030 C   0  0  0  0  0  0  0  0  0  0  0  0
   13.6830   21.5430   12.7600 C   0  0  0  0  0  0  0  0  0  0  0  0
   14.0480   20.8790   11.7960 O   0  0  0  0  0  0  0  0  0  0  0  0
   14.1730   22.8020   13.0340 N   0  0  0  0  0  0  0  0  0  0  0  0
   13.0140   18.7150   14.2890 C   0  0  0  0  0  0  0  0  0  0  0  0
   12.5270   17.9780   15.2940 N   0  0  0  0  0  0  0  0  0  0  0  0
   14.3650   18.3650   14.0180 C   0  0  0  0  0  0  0  0  0  0  0  0
   15.1610   23.4170   12.1950 C   0  0  0  0  0  0  0  0  0  0  0  0
   13.5460   17.1370   15.6840 O   0  0  0  0  0  0  0  0  0  0  0  0
   14.6370   17.3620   14.9220 C   0  0  0  0  0  0  0  0  0  0  0  0
   16.6210   23.1540   12.4330 C   0  0  0  0  0  0  0  0  0  0  0  0
   16.0460   24.4990   12.7520 C   0  0  0  0  0  0  0  0  0  0  0  0
   15.7970   16.5060   15.2220 C   0  0  0  0  0  0  0  0  0  0  0  0
   15.4720   15.0280   14.9200 C   0  0  0  0  0  0  0  0  0  0  0  0
   14.1300   14.5050   15.5070 C   0  0  0  0  0  0  0  0  0  0  0  0
   12.9400   14.5290   14.5120 C   0  0  0  0  0  0  0  0  0  0  0  0
   12.1500   13.2780   14.4140 N   0  0  0  0  0  0  0  0  0  0  0  0
   12.8240   12.2230   13.5660 C   0  0  2  0  0  0  0  0  0  0  0  0
   11.8460   12.7150   15.7500 C   0  0  0  0  0  0  0  0  0  0  0  0
   14.0660   12.7670   12.8560 C   0  0  0  0  0  0  0  0  0  0  0  0
   11.9640   11.4280   12.5260 C   0  0  0  0  0  0  0  0  0  0  0  0
   13.2480   11.2020   14.6350 C   0  0  0  0  0  0  0  0  0  0  0  0
   12.1110   11.2380   15.6300 C   0  0  0  0  0  0  0  0  0  0  0  0
   10.7240   11.3600   12.5320 O   0  0  0  0  0  0  0  0  0  0  0  0
   12.6980   10.7510   11.5640 N   0  0  0  0  0  0  0  0  0  0  0  0
   14.8230   11.6370   12.2780 C   0  0  0  0  0  0  0  0  0  0  0  0
   14.0950   10.6440   11.6370 C   0  0  0  0  0  0  0  0  0  0  0  0
   16.2100   11.5510   12.3720 C   0  0  0  0  0  0  0  0  0  0  0  0
   16.8680   10.4570   11.8220 C   0  0  0  0  0  0  0  0  0  0  0  0
   14.7440    9.5510   11.0810 C   0  0  0  0  0  0  0  0  0  0  0  0
   16.1370    9.4560   11.1770 C   0  0  0  0  0  0  0  0  0  0  0  0
  1  2  1  0
  1  3  1  0
  1  4  1  0
  4  5  2  0
  4  6  1  0
  3  7  1  0
  7  8  2  0
  7  9  1  0
  6 10  1  0
  8 11  1  0
  9 12  2  0
 11 12  1  0
 10 13  1  0
 10 14  1  0
 13 14  1  0
 12 15  1  0
 15 16  1  0
 16 17  1  0
 17 18  1  0
 18 19  1  0
 19 20  1  0
 19 21  1  0
 20 22  1  6
 20 23  1  0
 20 24  1  0
 21 25  1  0
 24 25  1  0
 23 26  2  0
 23 27  1  0
 22 28  1  0
 27 29  1  0
 28 29  2  0
 28 30  1  0
 30 31  2  0
 29 32  1  0
 31 33  1  0
 32 33  2  0
M  END
>  <comRMSD>  (143) 
0.316525

>  <∆∆G>  (143) 
-10.598195

>  <N_constrained_atoms>  (143) 
30.0

>  <LE>  (143) 
-0.321157

>  <ref_pdb>  (143) 
x0104_0

>  <ref_mols>  (143) 
x0091_0_B_α,x0796_0_B_α

>  <%Rank>  (143) 
2.436513

>  <generation_date>  (143) 
nan

>  <method>  (143) 
nan

>  <submitter_email>  (143) 
nan

>  <original SMILES>  (143) 
CN(Cc1cc(CCCCN2CCCC23Cc2ccccc2NC3=O)on1)C(=O)NC1CC1

>  <ref_url>  (143) 
nan

>  <submitter_name>  (143) 
nan

>  <submitter_institution>  (143) 
nan

$$$$
x0724_0_A_α-x0727_0_A_α
     RDKit          3D

 30 32  0  0  0  0  0  0  0  0999 V2000
   -8.5970   13.7950    4.2930 N   0  0  0  0  0  0  0  0  0  0  0  0
   -8.4860   13.9300    5.7400 C   0  0  0  0  0  0  0  0  0  0  0  0
   -8.3750   15.0810    3.6370 C   0  0  0  0  0  0  0  0  0  0  0  0
   -7.7290   14.8550    2.3100 C   0  0  0  0  0  0  0  0  0  0  0  0
   -6.3900   14.9300    2.0110 C   0  0  0  0  0  0  0  0  0  0  0  0
   -8.3140   14.5260    1.0700 C   0  0  0  0  0  0  0  0  0  0  0  0
   -7.4150   14.4080    0.0850 N   0  0  0  0  0  0  0  0  0  0  0  0
   -6.2150   14.6630    0.6770 N   0  0  0  0  0  0  0  0  0  0  0  0
   -4.9770   14.6430   -0.0340 C   0  0  0  0  0  0  0  0  0  0  0  0
   -3.7540   14.7480    0.6460 C   0  0  0  0  0  0  0  0  0  0  0  0
   -4.9720   14.5140   -1.4280 C   0  0  0  0  0  0  0  0  0  0  0  0
   -2.5480   14.7160   -0.0600 C   0  0  0  0  0  0  0  0  0  0  0  0
   -3.7630   14.4840   -2.1310 C   0  0  0  0  0  0  0  0  0  0  0  0
   -2.5390   14.5800   -1.4540 C   0  0  0  0  0  0  0  0  0  0  0  0
   -1.2370   14.5290   -2.2300 C   0  0  0  0  0  0  0  0  0  0  0  0
    0.0460   14.3770   -1.3840 C   0  0  0  0  0  0  0  0  0  0  0  0
    1.3070   14.0920   -2.2100 C   0  0  0  0  0  0  0  0  0  0  0  0
    1.5440   12.6750   -2.3460 O   0  0  0  0  0  0  0  0  0  0  0  0
    0.7920   11.9370   -3.2290 C   0  0  0  0  0  0  0  0  0  0  0  0
    0.9380   12.3880   -4.6940 C   0  0  1  0  0  0  0  0  0  0  0  0
    0.0990   10.9860   -2.8930 O   0  0  0  0  0  0  0  0  0  0  0  0
    0.1640   11.4690   -5.5380 N   0  0  0  0  0  0  0  0  0  0  0  0
    0.4650   13.8100   -4.9280 C   0  0  0  0  0  0  0  0  0  0  0  0
    0.7010   11.1340   -6.7600 C   0  0  0  0  0  0  0  0  0  0  0  0
    1.6440   11.7390   -7.1970 O   0  0  0  0  0  0  0  0  0  0  0  0
    0.0600    9.9510   -7.4840 C   0  0  0  0  0  0  0  0  0  0  0  0
   -1.2250   10.3340   -8.2130 C   0  0  0  0  0  0  0  0  0  0  0  0
   -0.3170    8.8150   -6.5110 C   0  0  0  0  0  0  0  0  0  0  0  0
   -2.1920    9.1770   -8.0000 C   0  0  0  0  0  0  0  0  0  0  0  0
   -1.8080    8.5700   -6.6620 C   0  0  0  0  0  0  0  0  0  0  0  0
  1  2  1  0
  1  3  1  0
  3  4  1  0
  4  5  2  0
  4  6  1  0
  6  7  2  0
  5  8  1  0
  7  8  1  0
  8  9  1  0
  9 10  2  0
  9 11  1  0
 10 12  1  0
 11 13  2  0
 12 14  2  0
 13 14  1  0
 14 15  1  0
 15 16  1  0
 16 17  1  0
 17 18  1  0
 18 19  1  0
 19 20  1  0
 19 21  2  0
 20 22  1  0
 20 23  1  1
 22 24  1  0
 24 25  2  0
 24 26  1  0
 26 27  1  0
 26 28  1  0
 27 29  1  0
 28 30  1  0
 29 30  1  0
M  END
>  <comRMSD>  (144) 
0.249677

>  <∆∆G>  (144) 
-9.586382

>  <N_constrained_atoms>  (144) 
27.0

>  <LE>  (144) 
-0.319546

>  <ref_pdb>  (144) 
x0104_0

>  <ref_mols>  (144) 
x0724_0_A_α,x0727_0_A_α

>  <%Rank>  (144) 
2.453672

>  <generation_date>  (144) 
nan

>  <method>  (144) 
nan

>  <submitter_email>  (144) 
nan

>  <original SMILES>  (144) 
CNCc1cnn(-c2ccc(CCCOC(=O)[C@H](C)NC(=O)C3CCCC3)cc2)c1

>  <ref_url>  (144) 
nan

>  <submitter_name>  (144) 
nan

>  <submitter_institution>  (144) 
nan

$$$$
x0628_0_A_α-x0685_0_A_α
     RDKit          3D

 24 25  0  0  0  0  0  0  0  0999 V2000
   -0.8110    9.0500   -7.3110 C   0  0  0  0  0  0  0  0  0  0  0  0
   -0.8200   10.2810   -6.5020 C   0  0  0  0  0  0  0  0  0  0  0  0
   -1.8720   10.6310   -5.7030 N   0  0  0  0  0  0  0  0  0  0  0  0
    0.1990   11.1420   -6.4870 N   0  0  0  0  0  0  0  0  0  0  0  0
   -0.2360   12.0820   -5.6260 N   0  0  0  0  0  0  0  0  0  0  0  0
   -1.4870   11.7720   -5.1560 C   0  0  0  0  0  0  0  0  0  0  0  0
   -2.3010   12.5650   -4.1880 C   0  0  0  0  0  0  0  0  0  0  0  0
    0.6260   13.2170   -5.3390 C   0  0  0  0  0  0  0  0  0  0  0  0
    1.6680   12.9430   -4.2640 C   0  0  0  0  0  0  0  0  0  0  0  0
   -2.3620   14.0830   -4.4440 C   0  0  0  0  0  0  0  0  0  0  0  0
    1.0730   12.2860   -3.0460 C   0  0  0  0  0  0  0  0  0  0  0  0
   -3.0190   14.6830   -3.2750 C   0  0  0  0  0  0  0  0  0  0  0  0
    0.5940   11.1650   -2.9730 O   0  0  0  0  0  0  0  0  0  0  0  0
    1.1160   13.0810   -1.9670 O   0  0  0  0  0  0  0  0  0  0  0  0
   -3.5590   14.9480   -2.2480 C   0  0  0  0  0  0  0  0  0  0  0  0
   -4.2120   14.9950   -0.9920 C   0  0  0  0  0  0  0  0  0  0  0  0
   -3.4980   15.1640    0.1860 C   0  0  0  0  0  0  0  0  0  0  0  0
   -5.5810   14.8560   -0.9150 C   0  0  0  0  0  0  0  0  0  0  0  0
   -4.1930   15.1810    1.3880 C   0  0  0  0  0  0  0  0  0  0  0  0
   -6.2750   14.8670    0.2380 N   0  0  0  0  0  0  0  0  0  0  0  0
   -5.5780   15.0270    1.3740 C   0  0  0  0  0  0  0  0  0  0  0  0
   -6.3430   15.0320    2.5340 N   0  0  0  0  0  0  0  0  0  0  0  0
   -7.7740   14.8050    2.5230 C   0  0  0  0  0  0  0  0  0  0  0  0
   -8.0930   13.4020    3.0100 C   0  0  0  0  0  0  0  0  0  0  0  0
  1  2  1  0
  2  3  1  0
  2  4  2  0
  4  5  1  0
  3  6  2  0
  5  6  1  0
  6  7  1  0
  5  8  1  0
  8  9  1  0
  7 10  1  0
  9 11  1  0
 10 12  1  0
 11 13  2  0
 11 14  1  0
 12 15  3  0
 15 16  1  0
 16 17  2  0
 16 18  1  0
 17 19  1  0
 18 20  2  0
 19 21  2  0
 20 21  1  0
 21 22  1  0
 22 23  1  0
 23 24  1  0
M  END
>  <comRMSD>  (145) 
0.274052

>  <∆∆G>  (145) 
-3.553885

>  <N_constrained_atoms>  (145) 
23.0

>  <LE>  (145) 
-0.148079

>  <ref_pdb>  (145) 
x0104_0

>  <ref_mols>  (145) 
x0628_0_A_α,x0685_0_A_α

>  <%Rank>  (145) 
2.47083

>  <generation_date>  (145) 
nan

>  <method>  (145) 
nan

>  <submitter_email>  (145) 
nan

>  <original SMILES>  (145) 
CCNc1ccc(C#CCCc2nc(C)nn2CCC(=O)O)cn1

>  <ref_url>  (145) 
nan

>  <submitter_name>  (145) 
nan

>  <submitter_institution>  (145) 
nan

$$$$
x0421_0_A_α-x0253_0_A_α
     RDKit          3D

 27 29  0  0  0  0  0  0  0  0999 V2000
   -3.4980   15.1430   -2.8120 N   0  0  0  0  0  0  0  0  0  0  0  0
   -2.6460   15.0290   -1.7430 C   0  0  0  0  0  0  0  0  0  0  0  0
   -1.3540   14.9820   -1.9970 N   0  0  0  0  0  0  0  0  0  0  0  0
   -3.3540   14.9730   -0.4560 C   0  0  0  0  0  0  0  0  0  0  0  0
   -0.2350   14.8770   -1.0260 C   0  0  0  0  0  0  0  0  0  0  0  0
   -2.7850   15.0720    0.8020 C   0  0  0  0  0  0  0  0  0  0  0  0
   -4.7250   14.8020   -0.3130 N   0  0  0  0  0  0  0  0  0  0  0  0
    0.9930   14.1480   -1.6070 C   0  0  0  0  0  0  0  0  0  0  0  0
   -3.8110   14.9590    1.6910 N   0  0  0  0  0  0  0  0  0  0  0  0
   -4.9570   14.7960    0.9780 C   0  0  0  0  0  0  0  0  0  0  0  0
    0.7610   12.7050   -1.7200 N   0  0  0  0  0  0  0  0  0  0  0  0
   -6.3460   14.6260    1.6470 C   0  0  0  0  0  0  0  0  0  0  0  0
    0.7590   12.1680   -2.8900 C   0  0  0  0  0  0  0  0  0  0  0  0
   -7.5960   14.6680    0.8020 C   0  0  0  0  0  0  0  0  0  0  0  0
   -7.1400   13.3710    1.4040 C   0  0  0  0  0  0  0  0  0  0  0  0
    0.5090   10.8460   -2.8960 O   0  0  0  0  0  0  0  0  0  0  0  0
    0.9840   12.7780   -4.2740 C   0  0  0  0  0  0  0  0  0  0  0  0
    0.4000   11.9520   -5.3330 N   0  0  0  0  0  0  0  0  0  0  0  0
    1.0670   11.6580   -6.4960 C   0  0  0  0  0  0  0  0  0  0  0  0
    2.1770   12.1310   -6.6440 O   0  0  0  0  0  0  0  0  0  0  0  0
    0.4590   10.7470   -7.5120 C   0  0  0  0  0  0  0  0  0  0  0  0
   -0.5210    9.8350   -7.1140 C   0  0  0  0  0  0  0  0  0  0  0  0
    0.8540   10.7890   -8.8570 C   0  0  0  0  0  0  0  0  0  0  0  0
   -1.1090    8.9700   -8.0460 C   0  0  0  0  0  0  0  0  0  0  0  0
    0.2750    9.9310   -9.7880 C   0  0  0  0  0  0  0  0  0  0  0  0
   -2.1600    8.0000   -7.6040 C   0  0  0  0  0  0  0  0  0  0  0  0
   -0.7030    9.0250   -9.3840 C   0  0  0  0  0  0  0  0  0  0  0  0
  1  2  1  0
  2  3  2  3
  2  4  1  0
  3  5  1  0
  4  6  2  0
  4  7  1  0
  5  8  1  0
  6  9  1  0
  7 10  2  0
  9 10  1  0
  8 11  1  0
 10 12  1  0
 11 13  2  3
 12 14  1  0
 12 15  1  0
 14 15  1  0
 13 16  1  0
 13 17  1  0
 17 18  1  0
 18 19  1  0
 19 20  2  0
 19 21  1  0
 21 22  2  0
 21 23  1  0
 22 24  1  0
 23 25  2  0
 24 26  1  0
 24 27  2  0
 25 27  1  0
M  END
>  <comRMSD>  (146) 
0.283047

>  <∆∆G>  (146) 
-7.729891

>  <N_constrained_atoms>  (146) 
25.0

>  <LE>  (146) 
-0.286292

>  <ref_pdb>  (146) 
x0104_0

>  <ref_mols>  (146) 
x0421_0_A_α,x0253_0_A_α

>  <%Rank>  (146) 
2.487989

>  <generation_date>  (146) 
nan

>  <method>  (146) 
nan

>  <submitter_email>  (146) 
nan

>  <original SMILES>  (146) 
Cc1cccc(C(=O)NCC(O)=NCCN=C(N)c2c[nH]c(C3CC3)n2)c1

>  <ref_url>  (146) 
nan

>  <submitter_name>  (146) 
nan

>  <submitter_institution>  (146) 
nan

$$$$
5cms_M_12_M_γ-6woj_D_0_D_β
     RDKit          3D

 16 16  0  0  0  0  0  0  0  0999 V2000
   -1.7800   12.6520   -4.4340 O   0  0  0  0  0  0  0  0  0  0  0  0
   -0.5660   13.2860   -4.0820 C   0  0  2  0  0  0  0  0  0  0  0  0
   -0.6910   14.2300   -2.8770 C   0  0  0  0  0  0  0  0  0  0  0  0
   -0.0430   14.1770   -5.1930 C   0  0  2  0  0  0  0  0  0  0  0  0
    1.3820   14.0210   -5.1680 O   0  0  0  0  0  0  0  0  0  0  0  0
   -0.2450   15.5270   -3.3040 O   0  0  0  0  0  0  0  0  0  0  0  0
   -0.5450   15.5430   -4.7040 C   0  0  1  0  0  0  0  0  0  0  0  0
    0.0550   16.8000   -5.3080 C   0  0  0  0  0  0  0  0  0  0  0  0
   -1.1290   18.1240   -5.6610 P   0  0  2  0  0  0  0  0  0  0  0  0
   -0.2810   19.2780   -6.2880 O   0  0  0  0  0  0  0  0  0  0  0  0
   -1.7830   18.6220   -4.4340 O   0  0  0  0  0  0  0  0  0  0  0  0
   -2.2340   17.6740   -6.7470 O   0  0  0  0  0  0  0  0  0  0  0  0
   -0.0390   19.9200   -7.6790 P   0  0  0  0  0  0  0  0  0  0  0  0
   -1.4650   20.5140   -8.0790 O   0  0  0  0  0  0  0  0  0  0  0  0
    1.0810   20.9000   -7.6970 O   0  0  0  0  0  0  0  0  0  0  0  0
    0.0690   18.7050   -8.7250 O   0  0  0  0  0  0  0  0  0  0  0  0
  2  1  1  6
  2  3  1  0
  2  4  1  0
  4  5  1  1
  3  6  1  0
  4  7  1  0
  6  7  1  0
  7  8  1  6
  8  9  1  0
  9 10  1  0
  9 11  2  0
  9 12  1  6
 10 13  1  0
 13 14  1  0
 13 15  2  0
 13 16  1  0
M  END
>  <comRMSD>  (147) 
0.503013

>  <∆∆G>  (147) 
-10.54569

>  <N_constrained_atoms>  (147) 
16.0

>  <LE>  (147) 
-0.659106

>  <ref_pdb>  (147) 
x0104_0

>  <ref_mols>  (147) 


>  <%Rank>  (147) 
2.505148

>  <generation_date>  (147) 
nan

>  <method>  (147) 
nan

>  <submitter_email>  (147) 
nan

>  <original SMILES>  (147) 
O=P(O)(O)OP(=O)(O)CC1OCC(O)C1O

>  <ref_url>  (147) 
nan

>  <submitter_name>  (147) 
nan

>  <submitter_institution>  (147) 
nan

$$$$
x0438_0_A_α-x0727_0_A_α
     RDKit          3D

 30 32  0  0  0  0  0  0  0  0999 V2000
   -8.1750   15.5810    3.9200 C   0  0  0  0  0  0  0  0  0  0  0  0
   -9.3120   15.2880    2.5570 S   0  0  0  0  0  0  0  0  0  0  0  0
  -10.5240   14.7410    3.1430 O   0  0  0  0  0  0  0  0  0  0  0  0
   -8.6210   14.0180    1.4740 C   0  0  0  0  0  0  0  0  0  0  0  0
   -9.4250   16.5090    1.7690 O   0  0  0  0  0  0  0  0  0  0  0  0
   -7.2850   14.3580    0.9170 C   0  0  0  0  0  0  0  0  0  0  0  0
   -7.0630   14.8270   -0.3570 N   0  0  0  0  0  0  0  0  0  0  0  0
   -6.1430   14.2440    1.5690 N   0  0  0  0  0  0  0  0  0  0  0  0
   -5.1520   14.6370    0.7030 C   0  0  0  0  0  0  0  0  0  0  0  0
   -5.6990   15.0110   -0.5180 C   0  0  0  0  0  0  0  0  0  0  0  0
   -4.9190   15.4550   -1.5870 C   0  0  0  0  0  0  0  0  0  0  0  0
   -3.7550   14.6960    0.8940 C   0  0  0  0  0  0  0  0  0  0  0  0
   -3.5280   15.5080   -1.3900 C   0  0  0  0  0  0  0  0  0  0  0  0
   -2.9310   15.1320   -0.1720 C   0  0  0  0  0  0  0  0  0  0  0  0
   -1.4180   15.1800    0.0090 C   0  0  0  0  0  0  0  0  0  0  0  0
   -0.6120   14.7800   -1.2520 C   0  0  0  0  0  0  0  0  0  0  0  0
   -0.0130   13.3610   -1.2220 C   0  0  0  0  0  0  0  0  0  0  0  0
    0.8840   13.0810   -2.3280 O   0  0  0  0  0  0  0  0  0  0  0  0
    0.6060   12.0130   -3.1370 C   0  0  0  0  0  0  0  0  0  0  0  0
    0.8810   12.3560   -4.6180 C   0  0  1  0  0  0  0  0  0  0  0  0
    0.2000   10.9170   -2.7440 O   0  0  0  0  0  0  0  0  0  0  0  0
    0.1370   11.4470   -5.4910 N   0  0  0  0  0  0  0  0  0  0  0  0
    0.5020   13.8040   -4.9110 C   0  0  0  0  0  0  0  0  0  0  0  0
    0.7060   11.1260   -6.7050 C   0  0  0  0  0  0  0  0  0  0  0  0
    1.6550   11.7440   -7.1310 O   0  0  0  0  0  0  0  0  0  0  0  0
    0.1260    9.9520   -7.4830 C   0  0  0  0  0  0  0  0  0  0  0  0
   -1.1620   10.3170   -8.2350 C   0  0  0  0  0  0  0  0  0  0  0  0
   -0.2070    8.7260   -6.6050 C   0  0  0  0  0  0  0  0  0  0  0  0
   -2.1090    9.1290   -8.0260 C   0  0  0  0  0  0  0  0  0  0  0  0
   -1.7170    8.5890   -6.6510 C   0  0  0  0  0  0  0  0  0  0  0  0
  2  1  1  0
  2  3  2  0
  2  4  1  0
  2  5  2  0
  4  6  1  0
  6  7  1  0
  6  8  2  0
  8  9  1  0
  7 10  1  0
  9 10  2  0
 10 11  1  0
  9 12  1  0
 11 13  2  0
 12 14  2  0
 13 14  1  0
 14 15  1  0
 15 16  1  0
 16 17  1  0
 17 18  1  0
 18 19  1  0
 19 20  1  0
 19 21  2  0
 20 22  1  0
 20 23  1  1
 22 24  1  0
 24 25  2  0
 24 26  1  0
 26 27  1  0
 26 28  1  0
 27 29  1  0
 28 30  1  0
 29 30  1  0
M  END
>  <comRMSD>  (148) 
0.234802

>  <∆∆G>  (148) 
-8.628586

>  <N_constrained_atoms>  (148) 
27.0

>  <LE>  (148) 
-0.28762

>  <ref_pdb>  (148) 
x0104_0

>  <ref_mols>  (148) 
x0438_0_A_α,x0727_0_A_α

>  <%Rank>  (148) 
2.522306

>  <generation_date>  (148) 
nan

>  <method>  (148) 
nan

>  <submitter_email>  (148) 
nan

>  <original SMILES>  (148) 
C[C@H](NC(=O)C1CCCC1)C(=O)OCCCc1ccc2[nH]c(CS(C)(=O)=O)nc2c1

>  <ref_url>  (148) 
nan

>  <submitter_name>  (148) 
nan

>  <submitter_institution>  (148) 
nan

$$$$
x0592_0_A_α-x0766_0_A_α
     RDKit          3D

 23 25  0  0  0  0  0  0  0  0999 V2000
   -2.9230   14.2200    1.3450 N   0  0  0  0  0  0  0  0  0  0  0  0
   -3.4270   15.1440    0.3390 C   0  0  2  0  0  0  0  0  0  0  0  0
   -4.9090   15.0550    0.1360 C   0  0  0  0  0  0  0  0  0  0  0  0
   -2.8550   14.8500   -1.0050 C   0  0  0  0  0  0  0  0  0  0  0  0
   -5.7170   15.4930   -0.9560 C   0  0  0  0  0  0  0  0  0  0  0  0
   -5.8290   14.5130    0.9970 C   0  0  0  0  0  0  0  0  0  0  0  0
   -1.5680   14.8310   -1.4990 C   0  0  0  0  0  0  0  0  0  0  0  0
   -3.9920   14.4690   -2.2050 S   0  0  0  0  0  0  0  0  0  0  0  0
   -7.0170   15.2420   -0.7840 N   0  0  0  0  0  0  0  0  0  0  0  0
   -7.0490   14.6470    0.4220 N   0  0  0  0  0  0  0  0  0  0  0  0
   -2.8060   14.2970   -3.3810 C   0  0  0  0  0  0  0  0  0  0  0  0
   -1.5390   14.5160   -2.9050 C   0  0  0  0  0  0  0  0  0  0  0  0
   -8.3000   14.2200    1.0040 C   0  0  0  0  0  0  0  0  0  0  0  0
   -0.3540   14.4330   -3.8120 C   0  0  2  0  0  0  0  0  0  0  0  0
   -8.1060   13.9920    2.5030 C   0  0  0  0  0  0  0  0  0  0  0  0
    0.3320   13.0800   -4.0190 C   0  0  2  0  0  0  0  0  0  0  0  0
    0.7990   15.2860   -3.3110 C   0  0  0  0  0  0  0  0  0  0  0  0
   -7.3060   15.0170    3.1020 O   0  0  0  0  0  0  0  0  0  0  0  0
    0.5060   12.2140   -2.7930 C   0  0  0  0  0  0  0  0  0  0  0  0
    1.6190   13.4660   -4.7430 C   0  0  0  0  0  0  0  0  0  0  0  0
    1.9920   14.8130   -4.1140 C   0  0  0  0  0  0  0  0  0  0  0  0
    1.2460   12.5410   -1.8810 O   0  0  0  0  0  0  0  0  0  0  0  0
   -0.1950   11.0630   -2.7580 O   0  0  0  0  0  0  0  0  0  0  0  0
  2  1  1  1
  2  3  1  0
  2  4  1  0
  3  5  1  0
  3  6  2  0
  4  7  2  0
  4  8  1  0
  5  9  2  0
  6 10  1  0
  9 10  1  0
  8 11  1  0
  7 12  1  0
 11 12  2  0
 10 13  1  0
 14 12  1  1
 13 15  1  0
 14 16  1  0
 14 17  1  0
 15 18  1  0
 16 19  1  1
 16 20  1  0
 17 21  1  0
 20 21  1  0
 19 22  2  0
 19 23  1  0
M  END
>  <comRMSD>  (149) 
0.461004

>  <∆∆G>  (149) 
-6.949498

>  <N_constrained_atoms>  (149) 
23.0

>  <LE>  (149) 
-0.302152

>  <ref_pdb>  (149) 
x0104_0

>  <ref_mols>  (149) 
x0592_0_A_α,x0766_0_A_α

>  <%Rank>  (149) 
2.539465

>  <generation_date>  (149) 
nan

>  <method>  (149) 
nan

>  <submitter_email>  (149) 
nan

>  <original SMILES>  (149) 
NC(c1cnn(CCO)c1)c1cc(C2CCCC2C(=O)O)cs1

>  <ref_url>  (149) 
nan

>  <submitter_name>  (149) 
nan

>  <submitter_institution>  (149) 
nan

$$$$
x0574_0_A_α-x0371_0_A_α
     RDKit          3D

 19 21  0  0  0  0  0  0  0  0999 V2000
    0.1100   13.9990    1.9920 N   0  0  0  0  0  0  0  0  0  0  0  0
   -1.0020   14.2690    1.3240 C   0  0  0  0  0  0  0  0  0  0  0  0
   -2.1010   14.3130    1.9630 N   0  0  0  0  0  0  0  0  0  0  0  0
   -1.1150   14.5700   -0.3630 S   0  0  0  0  0  0  0  0  0  0  0  0
   -3.1460   14.5720    1.1340 C   0  0  0  0  0  0  0  0  0  0  0  0
   -2.8350   14.7550   -0.1960 C   0  0  0  0  0  0  0  0  0  0  0  0
   -4.4640   14.6510    1.5620 C   0  0  0  0  0  0  0  0  0  0  0  0
   -3.8580   15.0350   -1.1310 C   0  0  0  0  0  0  0  0  0  0  0  0
   -5.4980   14.9050    0.7020 C   0  0  0  0  0  0  0  0  0  0  0  0
   -5.1930   15.1040   -0.6550 C   0  0  0  0  0  0  0  0  0  0  0  0
   -6.8260   14.9680    1.1260 O   0  0  0  0  0  0  0  0  0  0  0  0
   -7.0940   14.7790    2.5460 C   0  0  0  0  0  0  0  0  0  0  0  0
   -8.3620   15.4130    3.2140 C   0  0  0  0  0  0  0  0  0  0  0  0
   -9.2810   15.8460    2.5100 O   0  0  0  0  0  0  0  0  0  0  0  0
   -8.4180   15.4840    4.6830 C   0  0  0  0  0  0  0  0  0  0  0  0
   -7.9790   14.4080    5.4040 O   0  0  0  0  0  0  0  0  0  0  0  0
   -8.8420   16.4580    5.5810 C   0  0  0  0  0  0  0  0  0  0  0  0
   -8.1130   14.6850    6.7230 C   0  0  0  0  0  0  0  0  0  0  0  0
   -8.6440   15.9370    6.8900 C   0  0  0  0  0  0  0  0  0  0  0  0
  1  2  1  0
  2  3  2  0
  2  4  1  0
  3  5  1  0
  4  6  1  0
  5  6  2  0
  5  7  1  0
  6  8  1  0
  7  9  2  0
  8 10  2  0
  9 10  1  0
  9 11  1  0
 11 12  1  0
 12 13  1  0
 13 14  2  0
 13 15  1  0
 15 16  1  0
 15 17  2  0
 16 18  1  0
 17 19  1  0
 18 19  2  0
M  END
>  <comRMSD>  (150) 
0.469626

>  <∆∆G>  (150) 
-8.786484

>  <N_constrained_atoms>  (150) 
19.0

>  <LE>  (150) 
-0.462447

>  <ref_pdb>  (150) 
x0104_0

>  <ref_mols>  (150) 
x0574_0_A_α,x0371_0_A_α

>  <%Rank>  (150) 
2.556623

>  <generation_date>  (150) 
nan

>  <method>  (150) 
nan

>  <submitter_email>  (150) 
nan

>  <original SMILES>  (150) 
Nc1nc2cc(OCC(=O)c3ccco3)ccc2s1

>  <ref_url>  (150) 
nan

>  <submitter_name>  (150) 
nan

>  <submitter_institution>  (150) 
nan

$$$$
x0852_0_B_α-x0592_0_A_α
     RDKit          3D

 21 22  0  0  0  0  0  0  0  0999 V2000
   -9.6820   17.7410    7.3620 N   0  0  0  0  0  0  0  0  0  0  0  0
   -9.4530   17.2790    6.3290 C   0  0  0  0  0  0  0  0  0  0  0  0
   -9.3020   16.6800    5.0490 C   0  0  0  0  0  0  0  0  0  0  0  0
   -8.3990   15.6490    4.8020 C   0  0  0  0  0  0  0  0  0  0  0  0
  -10.1120   17.1620    4.0120 C   0  0  0  0  0  0  0  0  0  0  0  0
   -7.6030   15.1670    5.8260 O   0  0  0  0  0  0  0  0  0  0  0  0
   -8.3300   15.1180    3.5130 C   0  0  0  0  0  0  0  0  0  0  0  0
  -10.0180   16.6080    2.7490 C   0  0  0  0  0  0  0  0  0  0  0  0
  -11.0930   17.2230    1.3240 Br  0  0  0  0  0  0  0  0  0  0  0  0
   -7.4740   14.1300    3.2470 O   0  0  0  0  0  0  0  0  0  0  0  0
   -9.1370   15.5970    2.5040 C   0  0  0  0  0  0  0  0  0  0  0  0
   -7.7530   13.3900    2.0540 C   0  0  0  0  0  0  0  0  0  0  0  0
   -8.0000   14.2800    0.8330 C   0  0  0  0  0  0  0  0  0  0  0  0
   -6.7620   14.5960    0.1540 N   0  0  0  0  0  0  0  0  0  0  0  0
   -6.7580   15.0470   -1.1300 N   0  0  0  0  0  0  0  0  0  0  0  0
   -5.5210   14.4840    0.6980 C   0  0  0  0  0  0  0  0  0  0  0  0
   -4.6330   14.8770   -0.2720 C   0  0  0  0  0  0  0  0  0  0  0  0
   -5.4550   15.2140   -1.3770 C   0  0  0  0  0  0  0  0  0  0  0  0
   -3.1900   14.9340   -0.1870 C   0  0  0  0  0  0  0  0  0  0  0  0
   -2.6680   15.0360    1.0770 N   0  0  0  0  0  0  0  0  0  0  0  0
   -2.4630   14.8860   -1.1680 O   0  0  0  0  0  0  0  0  0  0  0  0
  1  2  3  0
  2  3  1  0
  3  4  2  0
  3  5  1  0
  4  6  1  0
  4  7  1  0
  5  8  2  0
  8  9  1  0
  7 10  1  0
  7 11  2  0
  8 11  1  0
 10 12  1  0
 12 13  1  0
 13 14  1  0
 14 15  1  0
 14 16  1  0
 16 17  2  0
 15 18  2  0
 17 18  1  0
 17 19  1  0
 19 20  1  0
 19 21  2  0
M  END
>  <comRMSD>  (151) 
0.41093

>  <∆∆G>  (151) 
-5.66604

>  <N_constrained_atoms>  (151) 
21.0

>  <LE>  (151) 
-0.269811

>  <ref_pdb>  (151) 
x0104_0

>  <ref_mols>  (151) 
x0852_0_B_α,x0592_0_A_α

>  <%Rank>  (151) 
2.573782

>  <generation_date>  (151) 
nan

>  <method>  (151) 
nan

>  <submitter_email>  (151) 
nan

>  <original SMILES>  (151) 
N#Cc1cc(Br)cc(OCCn2cc(C(N)=O)cn2)c1O

>  <ref_url>  (151) 
nan

>  <submitter_name>  (151) 
nan

>  <submitter_institution>  (151) 
nan

$$$$
x0722_0_A_α-x1015_0_A_α
     RDKit          3D

 28 30  0  0  0  0  0  0  0  0999 V2000
   -4.4720   15.7370    2.3380 C   0  0  0  0  0  0  0  0  0  0  0  0
   -3.4730   15.3000    1.3950 C   0  0  0  0  0  0  0  0  0  0  0  0
   -2.3170   14.9150    1.8850 N   0  0  0  0  0  0  0  0  0  0  0  0
   -3.5340   15.2350   -0.0070 C   0  0  0  0  0  0  0  0  0  0  0  0
   -4.7060   15.5850   -0.8760 C   0  0  0  0  0  0  0  0  0  0  0  0
   -2.2590   14.7980   -0.3440 C   0  0  0  0  0  0  0  0  0  0  0  0
   -1.5840   14.6210    0.8400 N   0  0  0  0  0  0  0  0  0  0  0  0
   -0.2340   14.1860    1.1010 C   0  0  0  0  0  0  0  0  0  0  0  0
   -1.6400   14.5580   -1.6660 C   0  0  0  0  0  0  0  0  0  0  0  0
   -5.9410   14.7350   -0.6290 C   0  0  0  0  0  0  0  0  0  0  0  0
   -7.0870   15.1460   -0.8320 O   0  0  0  0  0  0  0  0  0  0  0  0
   -5.7470   13.4650   -0.1620 N   0  0  0  0  0  0  0  0  0  0  0  0
   -0.2280   15.1860   -1.6960 C   0  0  0  0  0  0  0  0  0  0  0  0
    0.6750   14.1150   -1.6320 N   0  0  0  0  0  0  0  0  0  0  0  0
    0.7230   13.4120   -2.6560 C   0  0  0  0  0  0  0  0  0  0  0  0
    0.0760   13.4220   -4.0320 C   0  0  2  0  0  0  0  0  0  0  0  0
    1.4640   12.3360   -2.6180 N   0  0  0  0  0  0  0  0  0  0  0  0
   -1.2100   14.2450   -4.1580 C   0  0  0  0  0  0  0  0  0  0  0  0
   -0.2000   11.9880   -3.9980 N   0  0  0  0  0  0  0  0  0  0  0  0
    0.5180   11.4230   -2.9220 C   0  0  0  0  0  0  0  0  0  0  0  0
    0.3770   10.3640   -2.3230 O   0  0  0  0  0  0  0  0  0  0  0  0
   -0.5760   11.2700   -5.1420 C   0  0  0  0  0  0  0  0  0  0  0  0
   -0.0030   11.5170   -6.3950 C   0  0  0  0  0  0  0  0  0  0  0  0
   -1.5470   10.2690   -5.0380 C   0  0  0  0  0  0  0  0  0  0  0  0
   -0.3930   10.7780   -7.5150 C   0  0  0  0  0  0  0  0  0  0  0  0
   -1.9380    9.5310   -6.1520 C   0  0  0  0  0  0  0  0  0  0  0  0
   -1.3580    9.7880   -7.3840 C   0  0  0  0  0  0  0  0  0  0  0  0
   -1.8460    8.8710   -8.7540 Cl  0  0  0  0  0  0  0  0  0  0  0  0
  1  2  1  0
  2  3  2  0
  2  4  1  0
  4  5  1  0
  4  6  2  0
  3  7  1  0
  6  7  1  0
  7  8  1  0
  6  9  1  0
  5 10  1  0
 10 11  2  0
 10 12  1  0
  9 13  1  0
 13 14  1  0
 14 15  2  3
 15 16  1  0
 15 17  1  0
 16 18  1  1
 16 19  1  0
 17 20  1  0
 19 20  1  0
 20 21  2  0
 19 22  1  0
 22 23  2  0
 22 24  1  0
 23 25  1  0
 24 26  2  0
 25 27  2  0
 26 27  1  0
 27 28  1  0
M  END
>  <comRMSD>  (152) 
0.420031

>  <∆∆G>  (152) 
-8.004911

>  <N_constrained_atoms>  (152) 
27.0

>  <LE>  (152) 
-0.28589

>  <ref_pdb>  (152) 
x0104_0

>  <ref_mols>  (152) 
x0722_0_A_α,x1015_0_A_α

>  <%Rank>  (152) 
2.59094

>  <generation_date>  (152) 
nan

>  <method>  (152) 
nan

>  <submitter_email>  (152) 
nan

>  <original SMILES>  (152) 
Cc1nn(C)c(CCN=C2NC(=O)N(c3ccc(Cl)cc3)C2C)c1CC(N)=O

>  <ref_url>  (152) 
nan

>  <submitter_name>  (152) 
nan

>  <submitter_institution>  (152) 
nan

$$$$
x0421_0_A_α-x1015_0_A_α
     RDKit          3D

 27 30  0  0  0  0  0  0  0  0999 V2000
   -4.3450   15.3410   -2.9060 N   0  0  0  0  0  0  0  0  0  0  0  0
   -3.3150   14.9310   -2.1180 C   0  0  0  0  0  0  0  0  0  0  0  0
   -2.1690   14.5750   -2.5220 N   0  0  0  0  0  0  0  0  0  0  0  0
   -3.6790   14.9030   -0.7020 C   0  0  0  0  0  0  0  0  0  0  0  0
   -2.0000   14.6010   -3.9660 C   0  0  0  0  0  0  0  0  0  0  0  0
   -2.9010   14.9510    0.4420 C   0  0  0  0  0  0  0  0  0  0  0  0
   -5.0120   14.8070   -0.3530 N   0  0  0  0  0  0  0  0  0  0  0  0
   -0.5550   14.7440   -4.3920 C   0  0  0  0  0  0  0  0  0  0  0  0
   -3.7960   14.8730    1.4700 N   0  0  0  0  0  0  0  0  0  0  0  0
   -5.0500   14.7870    0.9460 C   0  0  0  0  0  0  0  0  0  0  0  0
   -6.3800   14.6720    1.7380 C   0  0  0  0  0  0  0  0  0  0  0  0
    0.4180   13.6310   -3.9760 C   0  0  2  0  0  0  0  0  0  0  0  0
   -7.7050   14.6790    1.0200 C   0  0  0  0  0  0  0  0  0  0  0  0
   -7.1920   13.4100    1.6410 C   0  0  0  0  0  0  0  0  0  0  0  0
   -0.1260   12.2700   -3.8640 N   0  0  0  0  0  0  0  0  0  0  0  0
    0.6970   13.9040   -2.5040 C   0  0  0  0  0  0  0  0  0  0  0  0
    0.9180   14.9990   -2.0080 O   0  0  0  0  0  0  0  0  0  0  0  0
    0.2640   11.7130   -2.6310 C   0  0  0  0  0  0  0  0  0  0  0  0
    0.6650   12.7370   -1.8260 N   0  0  0  0  0  0  0  0  0  0  0  0
   -0.5000   11.4800   -4.9870 C   0  0  0  0  0  0  0  0  0  0  0  0
    0.2760   10.5330   -2.2750 O   0  0  0  0  0  0  0  0  0  0  0  0
    0.0740   11.6810   -6.2560 C   0  0  0  0  0  0  0  0  0  0  0  0
   -1.4580   10.4640   -4.8630 C   0  0  0  0  0  0  0  0  0  0  0  0
   -0.2990   10.8960   -7.3530 C   0  0  0  0  0  0  0  0  0  0  0  0
   -1.8350    9.6770   -5.9550 C   0  0  0  0  0  0  0  0  0  0  0  0
   -1.2530    9.8950   -7.1970 C   0  0  0  0  0  0  0  0  0  0  0  0
   -1.7220    8.9260   -8.5390 Cl  0  0  0  0  0  0  0  0  0  0  0  0
  1  2  1  0
  2  3  2  3
  2  4  1  0
  3  5  1  0
  4  6  2  0
  4  7  1  0
  5  8  1  0
  6  9  1  0
  7 10  2  0
  9 10  1  0
 10 11  1  0
 12  8  1  1
 11 13  1  0
 11 14  1  0
 13 14  1  0
 12 15  1  0
 12 16  1  0
 16 17  2  0
 15 18  1  0
 16 19  1  0
 18 19  1  0
 15 20  1  0
 18 21  2  0
 20 22  2  0
 20 23  1  0
 22 24  1  0
 23 25  2  0
 24 26  2  0
 25 26  1  0
 26 27  1  0
M  END
>  <comRMSD>  (153) 
0.362951

>  <∆∆G>  (153) 
-5.546934

>  <N_constrained_atoms>  (153) 
26.0

>  <LE>  (153) 
-0.205442

>  <ref_pdb>  (153) 
x0104_0

>  <ref_mols>  (153) 
x0421_0_A_α,x1015_0_A_α

>  <%Rank>  (153) 
2.608099

>  <generation_date>  (153) 
nan

>  <method>  (153) 
nan

>  <submitter_email>  (153) 
nan

>  <original SMILES>  (153) 
NC(=NCCC1C(=O)NC(=O)N1c1ccc(Cl)cc1)c1c[nH]c(C2CC2)n1

>  <ref_url>  (153) 
nan

>  <submitter_name>  (153) 
nan

>  <submitter_institution>  (153) 
nan

$$$$
x0962_2_B_α-x0574_0_A_α
     RDKit          3D

 19 21  0  0  0  0  0  0  0  0999 V2000
  -10.6340   16.4250    0.8650 N   0  0  0  0  0  0  0  0  0  0  0  0
   -9.9260   16.1270    1.7310 C   0  0  0  0  0  0  0  0  0  0  0  0
   -9.1100   15.7920    2.8370 C   0  0  0  0  0  0  0  0  0  0  0  0
   -9.3030   16.2660    4.1060 N   0  0  0  0  0  0  0  0  0  0  0  0
   -8.0000   14.9740    2.9190 C   0  0  0  0  0  0  0  0  0  0  0  0
   -7.2770   14.1780    1.8730 C   0  0  0  0  0  0  0  0  0  0  0  0
   -8.3350   15.7320    4.9020 C   0  0  0  0  0  0  0  0  0  0  0  0
   -7.5520   14.9550    4.2150 N   0  0  0  0  0  0  0  0  0  0  0  0
   -6.7600   14.9420    0.7570 O   0  0  0  0  0  0  0  0  0  0  0  0
   -5.4100   14.8830    0.4930 C   0  0  0  0  0  0  0  0  0  0  0  0
   -4.4480   14.6130    1.4370 C   0  0  0  0  0  0  0  0  0  0  0  0
   -5.0190   15.1130   -0.8320 C   0  0  0  0  0  0  0  0  0  0  0  0
   -3.1010   14.5520    1.0830 C   0  0  0  0  0  0  0  0  0  0  0  0
   -3.6670   15.0590   -1.2190 C   0  0  0  0  0  0  0  0  0  0  0  0
   -2.7130   14.7660   -0.2290 C   0  0  0  0  0  0  0  0  0  0  0  0
   -2.0950   14.2840    1.9570 N   0  0  0  0  0  0  0  0  0  0  0  0
   -0.9650   14.2650    1.3650 C   0  0  0  0  0  0  0  0  0  0  0  0
   -0.9920   14.5960   -0.3160 S   0  0  0  0  0  0  0  0  0  0  0  0
    0.1240   13.9980    2.0600 N   0  0  0  0  0  0  0  0  0  0  0  0
  1  2  3  0
  2  3  1  0
  3  4  1  0
  3  5  2  0
  5  6  1  0
  4  7  1  0
  5  8  1  0
  7  8  2  0
  6  9  1  0
  9 10  1  0
 10 11  2  0
 10 12  1  0
 11 13  1  0
 12 14  2  0
 13 15  2  0
 14 15  1  0
 13 16  1  0
 16 17  2  0
 15 18  1  0
 17 18  1  0
 17 19  1  0
M  END
>  <comRMSD>  (154) 
0.444175

>  <∆∆G>  (154) 
-7.780112

>  <N_constrained_atoms>  (154) 
19.0

>  <LE>  (154) 
-0.40948

>  <ref_pdb>  (154) 
x0104_0

>  <ref_mols>  (154) 
x0962_2_B_α,x0574_0_A_α

>  <%Rank>  (154) 
2.625257

>  <generation_date>  (154) 
nan

>  <method>  (154) 
nan

>  <submitter_email>  (154) 
nan

>  <original SMILES>  (154) 
N#Cc1[nH]cnc1COc1ccc2sc(N)nc2c1

>  <ref_url>  (154) 
nan

>  <submitter_name>  (154) 
nan

>  <submitter_institution>  (154) 
nan

$$$$
x0253_0_A_α-x0290_0_A_α
     RDKit          3D

 29 30  0  0  0  0  0  0  0  0999 V2000
    0.5590   12.2280   -5.6150 N   0  0  0  0  0  0  0  0  0  0  0  0
    1.1900   11.7660   -6.6910 C   0  0  0  0  0  0  0  0  0  0  0  0
    2.3140   12.1470   -6.7940 O   0  0  0  0  0  0  0  0  0  0  0  0
    1.4370   12.5910   -4.5200 C   0  0  0  0  0  0  0  0  0  0  0  0
    0.6310   12.2560   -3.3350 C   0  0  0  0  0  0  0  0  0  0  0  0
    0.5180   10.8130   -7.6300 C   0  0  0  0  0  0  0  0  0  0  0  0
    0.6750   12.8570   -2.2440 N   0  0  0  0  0  0  0  0  0  0  0  0
   -0.2280   11.2380   -3.5290 O   0  0  0  0  0  0  0  0  0  0  0  0
   -0.4580    9.9210   -7.1750 C   0  0  0  0  0  0  0  0  0  0  0  0
    0.8680   10.8020   -8.9890 C   0  0  0  0  0  0  0  0  0  0  0  0
   -0.4410   12.2580   -1.5770 C   0  0  0  0  0  0  0  0  0  0  0  0
   -1.0790    9.0290   -8.0620 C   0  0  0  0  0  0  0  0  0  0  0  0
    0.2540    9.9200   -9.8700 C   0  0  0  0  0  0  0  0  0  0  0  0
   -2.1260    8.0760   -7.5620 C   0  0  0  0  0  0  0  0  0  0  0  0
   -1.5750   12.8390   -2.4340 C   0  0  0  0  0  0  0  0  0  0  0  0
   -0.7150    9.0380   -9.4110 C   0  0  0  0  0  0  0  0  0  0  0  0
   -1.5350   14.3540   -2.3040 C   0  0  0  0  0  0  0  0  0  0  0  0
   -1.5930   14.5070   -0.8410 C   0  0  0  0  0  0  0  0  0  0  0  0
   -0.4530   14.4980   -0.0420 C   0  0  0  0  0  0  0  0  0  0  0  0
   -2.8360   14.6310   -0.2640 C   0  0  0  0  0  0  0  0  0  0  0  0
   -0.6340   14.5940    1.3140 C   0  0  0  0  0  0  0  0  0  0  0  0
   -2.9380   14.7250    1.0970 C   0  0  0  0  0  0  0  0  0  0  0  0
   -4.2310   14.8390    1.5880 N   0  0  0  0  0  0  0  0  0  0  0  0
   -1.8540   14.6950    1.8970 N   0  0  0  0  0  0  0  0  0  0  0  0
   -5.3980   14.5150    0.9530 C   0  0  0  0  0  0  0  0  0  0  0  0
   -5.4230   14.5550   -0.2840 O   0  0  0  0  0  0  0  0  0  0  0  0
   -6.6280   14.1060    1.7710 C   0  0  0  0  0  0  0  0  0  0  0  0
   -7.7730   13.8240    0.8810 N   0  0  0  0  0  0  0  0  0  0  0  0
   -8.6460   14.9730    0.7520 C   0  0  0  0  0  0  0  0  0  0  0  0
  1  2  1  0
  2  3  2  0
  1  4  1  0
  4  5  1  0
  2  6  1  0
  5  7  2  3
  5  8  1  0
  6  9  2  0
  6 10  1  0
  7 11  1  0
  9 12  1  0
 10 13  2  0
 12 14  1  0
 11 15  1  0
 12 16  2  0
 13 16  1  0
 15 17  1  0
 17 18  1  0
 18 19  2  0
 18 20  1  0
 19 21  1  0
 20 22  2  0
 22 23  1  0
 21 24  2  0
 22 24  1  0
 23 25  1  0
 25 26  2  0
 25 27  1  0
 27 28  1  0
 28 29  1  0
M  END
>  <comRMSD>  (155) 
0.313177

>  <∆∆G>  (155) 
-7.401052

>  <N_constrained_atoms>  (155) 
27.0

>  <LE>  (155) 
-0.255209

>  <ref_pdb>  (155) 
x0104_0

>  <ref_mols>  (155) 
x0253_0_A_α,x0290_0_A_α

>  <%Rank>  (155) 
2.642416

>  <generation_date>  (155) 
nan

>  <method>  (155) 
nan

>  <submitter_email>  (155) 
nan

>  <original SMILES>  (155) 
CNCC(=O)Nc1cc(CCCN=C(O)CNC(=O)c2cccc(C)c2)ccn1

>  <ref_url>  (155) 
nan

>  <submitter_name>  (155) 
nan

>  <submitter_institution>  (155) 
nan

$$$$
x0805_0_A_β-x0662_0_A_β
     RDKit          3D

 19 20  0  0  0  0  0  0  0  0999 V2000
    0.2270   12.1680   -2.4850 C   0  0  0  0  0  0  0  0  0  0  0  0
    0.1040   10.8320   -2.6020 O   0  0  0  0  0  0  0  0  0  0  0  0
    0.4370   12.6410   -1.3770 O   0  0  0  0  0  0  0  0  0  0  0  0
    0.0570   12.9190   -3.7890 C   0  0  1  0  0  0  0  0  0  0  0  0
   -0.4810   14.3480   -3.7390 C   0  0  0  0  0  0  0  0  0  0  0  0
    1.3680   12.7820   -4.5650 C   0  0  1  0  0  0  0  0  0  0  0  0
    1.0740   12.2820   -5.8950 O   0  0  0  0  0  0  0  0  0  0  0  0
    2.2130   13.9540   -4.6280 O   0  0  0  0  0  0  0  0  0  0  0  0
    0.5760   15.3430   -3.3290 C   0  0  0  0  0  0  0  0  0  0  0  0
    0.0580   11.3700   -5.9390 C   0  0  0  0  0  0  0  0  0  0  0  0
    1.7670   15.2580   -4.2450 C   0  0  0  0  0  0  0  0  0  0  0  0
   -0.7560   11.1780   -5.0520 O   0  0  0  0  0  0  0  0  0  0  0  0
    0.0130   10.5850   -7.2000 C   0  0  0  0  0  0  0  0  0  0  0  0
    0.8360   10.8510   -8.2830 C   0  0  0  0  0  0  0  0  0  0  0  0
   -0.9060    9.5360   -7.2840 C   0  0  0  0  0  0  0  0  0  0  0  0
    0.7640   10.1030   -9.4570 C   0  0  0  0  0  0  0  0  0  0  0  0
   -0.9920    8.7740   -8.4480 C   0  0  0  0  0  0  0  0  0  0  0  0
    1.5980   10.3960  -10.5390 N   0  0  0  0  0  0  0  0  0  0  0  0
   -0.1580    9.0610   -9.5300 C   0  0  0  0  0  0  0  0  0  0  0  0
  1  2  1  0
  1  3  2  0
  4  1  1  1
  4  5  1  0
  4  6  1  0
  6  7  1  6
  6  8  1  0
  5  9  1  0
  7 10  1  0
  8 11  1  0
  9 11  1  0
 10 12  2  0
 10 13  1  0
 13 14  2  0
 13 15  1  0
 14 16  1  0
 15 17  2  0
 16 18  1  0
 16 19  2  0
 17 19  1  0
M  END
>  <comRMSD>  (156) 
0.315706

>  <∆∆G>  (156) 
-2.870511

>  <N_constrained_atoms>  (156) 
19.0

>  <LE>  (156) 
-0.15108

>  <ref_pdb>  (156) 
x0104_0

>  <ref_mols>  (156) 
x0805_0_A_β,x0662_0_A_β

>  <%Rank>  (156) 
2.659574

>  <generation_date>  (156) 
nan

>  <method>  (156) 
nan

>  <submitter_email>  (156) 
nan

>  <original SMILES>  (156) 
Nc1cccc(C(=O)OC2OCCCC2C(=O)O)c1

>  <ref_url>  (156) 
nan

>  <submitter_name>  (156) 
nan

>  <submitter_institution>  (156) 
nan

$$$$
x0574_0_A_α-x0962_2_B_α
     RDKit          3D

 19 21  0  0  0  0  0  0  0  0999 V2000
    0.1240   14.0120    2.0800 N   0  0  0  0  0  0  0  0  0  0  0  0
   -0.9640   14.2690    1.3780 C   0  0  0  0  0  0  0  0  0  0  0  0
   -2.0940   14.2900    1.9680 N   0  0  0  0  0  0  0  0  0  0  0  0
   -0.9930   14.5840   -0.3050 S   0  0  0  0  0  0  0  0  0  0  0  0
   -3.1040   14.5490    1.0930 C   0  0  0  0  0  0  0  0  0  0  0  0
   -2.7150   14.7500   -0.2180 C   0  0  0  0  0  0  0  0  0  0  0  0
   -4.4490   14.6130    1.4480 C   0  0  0  0  0  0  0  0  0  0  0  0
   -3.6710   15.0330   -1.2130 C   0  0  0  0  0  0  0  0  0  0  0  0
   -5.4140   14.8740    0.4980 C   0  0  0  0  0  0  0  0  0  0  0  0
   -5.0230   15.0880   -0.8260 C   0  0  0  0  0  0  0  0  0  0  0  0
   -6.7620   14.9380    0.7630 O   0  0  0  0  0  0  0  0  0  0  0  0
   -7.2880   14.1700    1.8720 C   0  0  0  0  0  0  0  0  0  0  0  0
   -8.0080   14.9700    2.9160 C   0  0  0  0  0  0  0  0  0  0  0  0
   -9.1160   15.7890    2.8310 C   0  0  0  0  0  0  0  0  0  0  0  0
   -7.5600   14.9530    4.2160 N   0  0  0  0  0  0  0  0  0  0  0  0
   -9.9290   16.1200    1.7250 C   0  0  0  0  0  0  0  0  0  0  0  0
   -9.3090   16.2680    4.1010 N   0  0  0  0  0  0  0  0  0  0  0  0
   -8.3440   15.7340    4.8960 C   0  0  0  0  0  0  0  0  0  0  0  0
  -10.6420   16.4170    0.8620 N   0  0  0  0  0  0  0  0  0  0  0  0
  1  2  1  0
  2  3  2  0
  2  4  1  0
  3  5  1  0
  4  6  1  0
  5  6  2  0
  5  7  1  0
  6  8  1  0
  7  9  2  0
  8 10  2  0
  9 10  1  0
  9 11  1  0
 11 12  1  0
 12 13  1  0
 13 14  2  0
 13 15  1  0
 14 16  1  0
 14 17  1  0
 15 18  2  0
 17 18  1  0
 16 19  3  0
M  END
>  <comRMSD>  (157) 
0.44522

>  <∆∆G>  (157) 
-7.765332

>  <N_constrained_atoms>  (157) 
19.0

>  <LE>  (157) 
-0.408702

>  <ref_pdb>  (157) 
x0104_0

>  <ref_mols>  (157) 
x0574_0_A_α,x0962_2_B_α

>  <%Rank>  (157) 
2.676733

>  <generation_date>  (157) 
nan

>  <method>  (157) 
nan

>  <submitter_email>  (157) 
nan

>  <original SMILES>  (157) 
N#Cc1[nH]cnc1COc1ccc2sc(N)nc2c1

>  <ref_url>  (157) 
nan

>  <submitter_name>  (157) 
nan

>  <submitter_institution>  (157) 
nan

$$$$
x0592_0_A_α-x0465_0_A_α
     RDKit          3D

 27 28  0  0  0  0  0  0  0  0999 V2000
   -2.8770   14.8080    1.4030 N   0  0  0  0  0  0  0  0  0  0  0  0
   -3.2040   14.7300    0.0740 C   0  0  0  0  0  0  0  0  0  0  0  0
   -2.2860   14.6050   -0.8250 N   0  0  0  0  0  0  0  0  0  0  0  0
   -4.6320   14.8030   -0.1290 C   0  0  0  0  0  0  0  0  0  0  0  0
   -0.8520   14.5320   -0.5260 C   0  0  0  0  0  0  0  0  0  0  0  0
   -5.3720   15.1700   -1.2820 C   0  0  0  0  0  0  0  0  0  0  0  0
   -5.6050   14.5150    0.7980 C   0  0  0  0  0  0  0  0  0  0  0  0
   -0.0230   14.8460   -1.7860 C   0  0  0  0  0  0  0  0  0  0  0  0
   -6.6980   15.1140   -1.0860 N   0  0  0  0  0  0  0  0  0  0  0  0
   -6.8080   14.7110    0.1960 N   0  0  0  0  0  0  0  0  0  0  0  0
   -8.1000   14.5220    0.8260 C   0  0  0  0  0  0  0  0  0  0  0  0
    1.2410   14.0020   -1.9640 C   0  0  0  0  0  0  0  0  0  0  0  0
   -7.9770   14.1060    2.2940 C   0  0  0  0  0  0  0  0  0  0  0  0
    0.8970   12.5930   -1.9830 N   0  0  0  0  0  0  0  0  0  0  0  0
   -7.1930   15.0360    3.0350 O   0  0  0  0  0  0  0  0  0  0  0  0
    0.7090   11.9740   -3.0910 C   0  0  0  0  0  0  0  0  0  0  0  0
    0.7820   12.5230   -4.5340 C   0  0  1  0  0  0  0  0  0  0  0  0
    0.3980   10.6600   -2.9980 O   0  0  0  0  0  0  0  0  0  0  0  0
    2.1730   13.1010   -4.7770 C   0  0  0  0  0  0  0  0  0  0  0  0
    0.6150   11.4880   -5.5150 O   0  0  0  0  0  0  0  0  0  0  0  0
   -0.5910   10.8490   -5.6300 C   0  0  0  0  0  0  0  0  0  0  0  0
   -0.6600    9.8150   -6.5780 C   0  0  0  0  0  0  0  0  0  0  0  0
   -1.7330   11.1470   -4.8860 C   0  0  0  0  0  0  0  0  0  0  0  0
    0.4090    9.4940   -7.3210 F   0  0  0  0  0  0  0  0  0  0  0  0
   -1.8300    9.0920   -6.7780 C   0  0  0  0  0  0  0  0  0  0  0  0
   -2.9120   10.4220   -5.0860 C   0  0  0  0  0  0  0  0  0  0  0  0
   -2.9630    9.3950   -6.0290 C   0  0  0  0  0  0  0  0  0  0  0  0
  1  2  1  0
  2  3  2  3
  2  4  1  0
  3  5  1  0
  4  6  1  0
  4  7  2  0
  5  8  1  0
  6  9  2  0
  7 10  1  0
  9 10  1  0
 10 11  1  0
  8 12  1  0
 11 13  1  0
 12 14  1  0
 13 15  1  0
 14 16  2  3
 16 17  1  0
 16 18  1  0
 17 19  1  6
 17 20  1  0
 20 21  1  0
 21 22  2  0
 21 23  1  0
 22 24  1  0
 22 25  1  0
 23 26  2  0
 25 27  2  0
 26 27  1  0
M  END
>  <comRMSD>  (158) 
0.199499

>  <∆∆G>  (158) 
-9.918611

>  <N_constrained_atoms>  (158) 
24.0

>  <LE>  (158) 
-0.367356

>  <ref_pdb>  (158) 
x0104_0

>  <ref_mols>  (158) 
x0592_0_A_α,x0465_0_A_α

>  <%Rank>  (158) 
2.693892

>  <generation_date>  (158) 
nan

>  <method>  (158) 
nan

>  <submitter_email>  (158) 
nan

>  <original SMILES>  (158) 
C[C@@H](Oc1ccccc1F)C(O)=NCCCN=C(N)c1cnn(CCO)c1

>  <ref_url>  (158) 
nan

>  <submitter_name>  (158) 
nan

>  <submitter_institution>  (158) 
nan

$$$$
x0910_0_A_α-x0628_0_A_α
     RDKit          3D

 19 20  0  0  0  0  0  0  0  0999 V2000
   -2.7520   14.3740   -1.7090 N   0  0  0  0  0  0  0  0  0  0  0  0
   -1.9240   14.6160   -0.6780 C   0  0  0  0  0  0  0  0  0  0  0  0
   -2.2590   14.8780    0.5660 N   0  0  0  0  0  0  0  0  0  0  0  0
   -0.5610   14.6280   -0.7880 N   0  0  0  0  0  0  0  0  0  0  0  0
    0.2610   14.3860   -1.9600 C   0  0  0  0  0  0  0  0  0  0  0  0
   -1.1050   15.0720    1.2810 N   0  0  0  0  0  0  0  0  0  0  0  0
   -0.1000   14.9260    0.4590 C   0  0  0  0  0  0  0  0  0  0  0  0
    0.9500   13.1310   -1.7740 O   0  0  0  0  0  0  0  0  0  0  0  0
    0.9610   12.3060   -2.8620 C   0  0  0  0  0  0  0  0  0  0  0  0
    0.5490   11.1520   -2.8320 O   0  0  0  0  0  0  0  0  0  0  0  0
    1.5480   12.9680   -4.0970 C   0  0  0  0  0  0  0  0  0  0  0  0
    0.5700   13.1460   -5.2690 C   0  0  0  0  0  0  0  0  0  0  0  0
   -0.2500   11.9830   -5.5600 N   0  0  0  0  0  0  0  0  0  0  0  0
    0.1620   11.0980   -6.4820 N   0  0  0  0  0  0  0  0  0  0  0  0
   -1.4560   11.6050   -5.0210 C   0  0  0  0  0  0  0  0  0  0  0  0
   -2.1940   12.3560   -3.9780 C   0  0  0  0  0  0  0  0  0  0  0  0
   -1.8350   10.4740   -5.5860 N   0  0  0  0  0  0  0  0  0  0  0  0
   -0.8220   10.1990   -6.4670 C   0  0  0  0  0  0  0  0  0  0  0  0
   -0.8190    9.0020   -7.3280 C   0  0  0  0  0  0  0  0  0  0  0  0
  1  2  1  0
  2  3  2  0
  2  4  1  0
  4  5  1  0
  3  6  1  0
  4  7  1  0
  6  7  2  0
  5  8  1  0
  8  9  1  0
  9 10  2  0
  9 11  1  0
 11 12  1  0
 12 13  1  0
 13 14  1  0
 13 15  1  0
 15 16  1  0
 15 17  2  0
 14 18  2  0
 17 18  1  0
 18 19  1  0
M  END
>  <comRMSD>  (159) 
0.23861

>  <∆∆G>  (159) 
-5.934265

>  <N_constrained_atoms>  (159) 
18.0

>  <LE>  (159) 
-0.31233

>  <ref_pdb>  (159) 
x0104_0

>  <ref_mols>  (159) 
x0910_0_A_α,x0628_0_A_α

>  <%Rank>  (159) 
2.71105

>  <generation_date>  (159) 
nan

>  <method>  (159) 
nan

>  <submitter_email>  (159) 
nan

>  <original SMILES>  (159) 
Cc1nc(C)n(CCC(=O)OCn2cnnc2N)n1

>  <ref_url>  (159) 
nan

>  <submitter_name>  (159) 
nan

>  <submitter_institution>  (159) 
nan

$$$$
6YWK_0_E_α-5cms_K_10_K_γ
     RDKit          3D

 24 25  0  0  0  0  0  0  0  0999 V2000
    1.1550   20.8930   -7.5410 O   0  0  0  0  0  0  0  0  0  0  0  0
    0.0040   19.7710   -7.3970 S   0  0  0  0  0  0  0  0  0  0  0  0
    0.1050   19.0760   -5.9540 O   0  0  0  0  0  0  0  0  0  0  0  0
    0.0730   18.7610   -8.6480 O   0  0  0  0  0  0  0  0  0  0  0  0
   -1.5630   20.6390   -7.3240 C   0  0  0  0  0  0  0  0  0  0  0  0
   -1.7520   21.6990   -8.3890 C   0  0  0  0  0  0  0  0  0  0  0  0
    0.9430   17.9870   -5.6420 C   0  0  0  0  0  0  0  0  0  0  0  0
    0.0840   16.8230   -5.1670 C   0  0  0  0  0  0  0  0  0  0  0  0
   -2.9020   22.6360   -8.3750 N   0  0  0  0  0  0  0  0  0  0  0  0
   -2.9510   23.6370   -7.3180 C   0  0  0  0  0  0  0  0  0  0  0  0
   -4.2060   22.0260   -8.6620 C   0  0  0  0  0  0  0  0  0  0  0  0
    0.7800   15.5950   -4.5580 C   0  0  1  0  0  0  0  0  0  0  0  0
   -4.0060   23.3570   -6.2040 C   0  0  0  0  0  0  0  0  0  0  0  0
   -5.1100   21.8030   -7.4260 C   0  0  0  0  0  0  0  0  0  0  0  0
    0.4450   15.5430   -3.1570 O   0  0  0  0  0  0  0  0  0  0  0  0
    0.3770   14.2280   -5.1240 C   0  0  1  0  0  0  0  0  0  0  0  0
    1.3740   13.2330   -4.8330 O   0  0  0  0  0  0  0  0  0  0  0  0
   -5.3490   22.9900   -6.6910 N   0  0  0  0  0  0  0  0  0  0  0  0
   -0.5780   14.5550   -2.9720 C   0  0  0  0  0  0  0  0  0  0  0  0
   -0.8730   13.9090   -4.3230 C   0  0  2  0  0  0  0  0  0  0  0  0
   -5.6310   24.0250   -7.6560 C   0  0  0  0  0  0  0  0  0  0  0  0
   -1.1100   12.5090   -4.2240 O   0  0  0  0  0  0  0  0  0  0  0  0
   -6.7700   23.8660   -8.6850 C   0  0  0  0  0  0  0  0  0  0  0  0
   -7.0570   22.4970   -8.9770 O   0  0  0  0  0  0  0  0  0  0  0  0
  2  1  1  0
  2  3  1  0
  2  4  1  0
  2  5  1  0
  5  6  1  0
  3  7  1  0
  7  8  1  0
  6  9  1  0
  9 10  1  0
  9 11  1  0
 12  8  1  6
 10 13  1  0
 11 14  1  0
 12 15  1  0
 12 16  1  0
 16 17  1  1
 13 18  1  0
 14 18  1  0
 15 19  1  0
 16 20  1  0
 19 20  1  0
 18 21  1  0
 20 22  1  1
 21 23  1  0
 23 24  1  0
M  END
>  <comRMSD>  (160) 
0.444622

>  <∆∆G>  (160) 
-11.508388

>  <N_constrained_atoms>  (160) 
23.0

>  <LE>  (160) 
-0.479516

>  <ref_pdb>  (160) 
x0104_0

>  <ref_mols>  (160) 


>  <%Rank>  (160) 
2.728209

>  <generation_date>  (160) 
nan

>  <method>  (160) 
nan

>  <submitter_email>  (160) 
nan

>  <original SMILES>  (160) 
OCCN1CCN(CCS(O)(O)OCCC2OCC(O)C2O)CC1

>  <ref_url>  (160) 
nan

>  <submitter_name>  (160) 
nan

>  <submitter_institution>  (160) 
nan

$$$$
5DUS_0_A_α-1vhu_0_A_α
     RDKit          3D

 14 14  0  0  0  0  0  0  0  0999 V2000
   -2.0940   21.6890   -7.5330 C   0  0  0  0  0  0  0  0  0  0  0  0
   -1.0410   21.0210   -8.3850 C   0  0  0  0  0  0  0  0  0  0  0  0
    0.0580   19.8540   -7.6300 S   0  0  0  0  0  0  0  0  0  0  0  0
   -3.4320   21.9990   -8.2260 C   0  0  1  0  0  0  0  0  0  0  0  0
   -4.4010   21.1420   -7.5700 O   0  0  0  0  0  0  0  0  0  0  0  0
   -3.9340   23.4580   -8.0520 C   0  0  1  0  0  0  0  0  0  0  0  0
   -4.3700   24.0410   -9.2820 O   0  0  0  0  0  0  0  0  0  0  0  0
    0.1700   18.7970   -8.6480 O   0  0  0  0  0  0  0  0  0  0  0  0
   -0.6530   19.4730   -6.4150 O   0  0  0  0  0  0  0  0  0  0  0  0
    1.2610   20.7020   -7.4300 O   0  0  0  0  0  0  0  0  0  0  0  0
   -4.9090   21.9530   -6.5330 C   0  0  1  0  0  0  0  0  0  0  0  0
   -5.1590   23.3010   -7.1700 C   0  0  1  0  0  0  0  0  0  0  0  0
   -6.1140   21.4310   -6.0340 O   0  0  0  0  0  0  0  0  0  0  0  0
   -5.3650   24.2990   -6.1710 O   0  0  0  0  0  0  0  0  0  0  0  0
  1  2  1  0
  2  3  1  0
  4  1  1  1
  4  5  1  0
  4  6  1  0
  6  7  1  6
  3  8  2  0
  3  9  2  0
  3 10  1  0
  5 11  1  0
  6 12  1  0
 11 12  1  0
 11 13  1  6
 12 14  1  1
M  CHG  1  10  -1
M  END
>  <comRMSD>  (161) 
0.659667

>  <∆∆G>  (161) 
-14.830257

>  <N_constrained_atoms>  (161) 
14.0

>  <LE>  (161) 
-1.059304

>  <ref_pdb>  (161) 
x0104_0

>  <ref_mols>  (161) 


>  <%Rank>  (161) 
2.745367

>  <generation_date>  (161) 
nan

>  <method>  (161) 
nan

>  <submitter_email>  (161) 
nan

>  <original SMILES>  (161) 
O=S(=O)([O-])CCC1OC(O)C(O)C1O

>  <ref_url>  (161) 
nan

>  <submitter_name>  (161) 
nan

>  <submitter_institution>  (161) 
nan

$$$$
x0628_0_A_α-x0471_0_A_α
     RDKit          3D

 30 32  0  0  0  0  0  0  0  0999 V2000
   -0.8440    9.0210   -7.0920 C   0  0  0  0  0  0  0  0  0  0  0  0
   -0.9120   10.2850   -6.3310 C   0  0  0  0  0  0  0  0  0  0  0  0
   -2.0120   10.6650   -5.6130 N   0  0  0  0  0  0  0  0  0  0  0  0
    0.0990   11.1510   -6.2890 N   0  0  0  0  0  0  0  0  0  0  0  0
   -0.3910   12.1280   -5.4970 N   0  0  0  0  0  0  0  0  0  0  0  0
   -1.6770   11.8350   -5.0870 C   0  0  0  0  0  0  0  0  0  0  0  0
   -2.5930   12.6540   -4.2090 C   0  0  0  0  0  0  0  0  0  0  0  0
    0.4640   13.2630   -5.2250 C   0  0  0  0  0  0  0  0  0  0  0  0
    1.6070   12.9550   -4.2680 C   0  0  0  0  0  0  0  0  0  0  0  0
   -1.9330   13.3630   -3.0090 C   0  0  0  0  0  0  0  0  0  0  0  0
    1.0950   12.2900   -3.0160 C   0  0  0  0  0  0  0  0  0  0  0  0
   -2.5000   14.7620   -2.6500 C   0  0  0  0  0  0  0  0  0  0  0  0
    0.6790   11.1490   -2.8760 O   0  0  0  0  0  0  0  0  0  0  0  0
    1.1330   13.1260   -1.9660 O   0  0  0  0  0  0  0  0  0  0  0  0
   -3.4920   14.8030   -1.4970 C   0  0  0  0  0  0  0  0  0  0  0  0
   -4.8700   14.7030   -1.7600 C   0  0  0  0  0  0  0  0  0  0  0  0
   -3.0380   14.9260   -0.1690 C   0  0  0  0  0  0  0  0  0  0  0  0
   -5.7390   14.7070   -0.6630 C   0  0  0  0  0  0  0  0  0  0  0  0
   -3.9320   14.9370    0.9100 C   0  0  0  0  0  0  0  0  0  0  0  0
   -7.1060   14.6120   -0.5620 N   0  0  0  0  0  0  0  0  0  0  0  0
   -5.3030   14.8160    0.6480 C   0  0  0  0  0  0  0  0  0  0  0  0
   -7.4450   14.6540    0.7700 C   0  0  0  0  0  0  0  0  0  0  0  0
   -6.3660   14.7810    1.5110 N   0  0  0  0  0  0  0  0  0  0  0  0
   -8.8540   14.5670    1.2450 C   0  0  0  0  0  0  0  0  0  0  0  0
   -8.8910   14.1990    2.6440 N   0  0  0  0  0  0  0  0  0  0  0  0
   -8.9730   14.9990    3.7450 C   0  0  0  0  0  0  0  0  0  0  0  0
   -9.3010   16.1760    3.5810 O   0  0  0  0  0  0  0  0  0  0  0  0
   -8.6790   14.4240    5.1250 C   0  0  0  0  0  0  0  0  0  0  0  0
   -9.9020   13.6750    5.6600 C   0  0  0  0  0  0  0  0  0  0  0  0
   -8.2960   15.5690    6.0640 C   0  0  0  0  0  0  0  0  0  0  0  0
  1  2  1  0
  2  3  1  0
  2  4  2  0
  4  5  1  0
  3  6  2  0
  5  6  1  0
  6  7  1  0
  5  8  1  0
  8  9  1  0
  7 10  1  0
  9 11  1  0
 10 12  1  0
 11 13  2  0
 11 14  1  0
 12 15  1  0
 15 16  2  0
 15 17  1  0
 16 18  1  0
 17 19  2  0
 18 20  1  0
 18 21  2  0
 19 21  1  0
 20 22  1  0
 21 23  1  0
 22 23  2  0
 22 24  1  0
 24 25  1  0
 25 26  1  0
 26 27  2  0
 26 28  1  0
 28 29  1  0
 28 30  1  0
M  END
>  <comRMSD>  (162) 
0.306987

>  <∆∆G>  (162) 
-5.85055

>  <N_constrained_atoms>  (162) 
28.0

>  <LE>  (162) 
-0.195018

>  <ref_pdb>  (162) 
x0104_0

>  <ref_mols>  (162) 
x0628_0_A_α,x0471_0_A_α

>  <%Rank>  (162) 
2.762526

>  <generation_date>  (162) 
nan

>  <method>  (162) 
nan

>  <submitter_email>  (162) 
nan

>  <original SMILES>  (162) 
Cc1nc(CCCc2ccc3nc(CNC(=O)C(C)C)[nH]c3c2)n(CCC(=O)O)n1

>  <ref_url>  (162) 
nan

>  <submitter_name>  (162) 
nan

>  <submitter_institution>  (162) 
nan

$$$$
x0253_0_A_α-x0724_0_A_α
     RDKit          3D

 31 33  0  0  0  0  0  0  0  0999 V2000
    0.3520   11.9720   -5.4020 N   0  0  0  0  0  0  0  0  0  0  0  0
    1.0440   11.6540   -6.5400 C   0  0  0  0  0  0  0  0  0  0  0  0
    2.1620   12.1210   -6.6520 O   0  0  0  0  0  0  0  0  0  0  0  0
    0.9340   12.7700   -4.3210 C   0  0  0  0  0  0  0  0  0  0  0  0
    0.7540   12.0610   -2.9880 C   0  0  0  0  0  0  0  0  0  0  0  0
    0.4550   10.7430   -7.5570 C   0  0  0  0  0  0  0  0  0  0  0  0
    0.9310   12.6410   -1.8650 N   0  0  0  0  0  0  0  0  0  0  0  0
    0.3850   10.7680   -3.0640 O   0  0  0  0  0  0  0  0  0  0  0  0
   -0.5210    9.8260   -7.1600 C   0  0  0  0  0  0  0  0  0  0  0  0
    0.8590   10.7830   -8.8990 C   0  0  0  0  0  0  0  0  0  0  0  0
    1.3050   14.0430   -1.8060 C   0  0  0  0  0  0  0  0  0  0  0  0
   -1.0930    8.9580   -8.0910 C   0  0  0  0  0  0  0  0  0  0  0  0
    0.2930    9.9190   -9.8280 C   0  0  0  0  0  0  0  0  0  0  0  0
   -2.1400    7.9830   -7.6400 C   0  0  0  0  0  0  0  0  0  0  0  0
    0.0930   14.7700   -1.2240 C   0  0  0  0  0  0  0  0  0  0  0  0
   -0.6820    9.0070   -9.4270 C   0  0  0  0  0  0  0  0  0  0  0  0
   -1.1860   14.6230   -2.0770 C   0  0  0  0  0  0  0  0  0  0  0  0
   -2.5150   14.6520   -1.3520 C   0  0  0  0  0  0  0  0  0  0  0  0
   -2.5720   14.7560    0.0450 C   0  0  0  0  0  0  0  0  0  0  0  0
   -3.7230   14.5690   -2.0660 C   0  0  0  0  0  0  0  0  0  0  0  0
   -3.7940   14.7710    0.7170 C   0  0  0  0  0  0  0  0  0  0  0  0
   -4.9510   14.5820   -1.3970 C   0  0  0  0  0  0  0  0  0  0  0  0
   -4.9960   14.6790   -0.0000 C   0  0  0  0  0  0  0  0  0  0  0  0
   -6.2440   14.6820    0.6850 N   0  0  0  0  0  0  0  0  0  0  0  0
   -7.4280   14.4280    0.0690 N   0  0  0  0  0  0  0  0  0  0  0  0
   -6.4410   14.9300    2.0190 C   0  0  0  0  0  0  0  0  0  0  0  0
   -7.7840   14.8400    2.2900 C   0  0  0  0  0  0  0  0  0  0  0  0
   -8.3440   14.5260    1.0390 C   0  0  0  0  0  0  0  0  0  0  0  0
   -8.4650   15.0380    3.6000 C   0  0  0  0  0  0  0  0  0  0  0  0
   -8.4800   13.7980    4.3730 N   0  0  0  0  0  0  0  0  0  0  0  0
   -8.5090   14.0360    5.8080 C   0  0  0  0  0  0  0  0  0  0  0  0
  1  2  1  0
  2  3  2  0
  1  4  1  0
  4  5  1  0
  2  6  1  0
  5  7  2  3
  5  8  1  0
  6  9  2  0
  6 10  1  0
  7 11  1  0
  9 12  1  0
 10 13  2  0
 12 14  1  0
 11 15  1  0
 12 16  2  0
 13 16  1  0
 15 17  1  0
 17 18  1  0
 18 19  2  0
 18 20  1  0
 19 21  1  0
 20 22  2  0
 21 23  2  0
 22 23  1  0
 23 24  1  0
 24 25  1  0
 24 26  1  0
 26 27  2  0
 25 28  2  0
 27 28  1  0
 27 29  1  0
 29 30  1  0
 30 31  1  0
M  END
>  <comRMSD>  (163) 
0.246032

>  <∆∆G>  (163) 
-7.72098

>  <N_constrained_atoms>  (163) 
28.0

>  <LE>  (163) 
-0.249064

>  <ref_pdb>  (163) 
x0104_0

>  <ref_mols>  (163) 
x0253_0_A_α,x0724_0_A_α

>  <%Rank>  (163) 
2.779684

>  <generation_date>  (163) 
nan

>  <method>  (163) 
nan

>  <submitter_email>  (163) 
nan

>  <original SMILES>  (163) 
CNCc1cnn(-c2ccc(CCCN=C(O)CNC(=O)c3cccc(C)c3)cc2)c1

>  <ref_url>  (163) 
nan

>  <submitter_name>  (163) 
nan

>  <submitter_institution>  (163) 
nan

$$$$
EU0960_0_A_α-5dus_0_A_β
     RDKit          3D

 31 32  0  0  0  0  0  0  0  0999 V2000
   -2.2680   10.1480   -4.9330 C   0  0  0  0  0  0  0  0  0  0  0  0
   -1.1020   10.4220   -5.8230 C   0  0  0  0  0  0  0  0  0  0  0  0
   -0.7850    9.5480   -6.8930 N   0  0  0  0  0  0  0  0  0  0  0  0
   -0.2290   11.4480   -5.7670 C   0  0  0  0  0  0  0  0  0  0  0  0
   -1.8720    8.9050   -7.6550 C   0  0  0  0  0  0  0  0  0  0  0  0
   -0.2570   12.5210   -4.8000 N   0  0  0  0  0  0  0  0  0  0  0  0
    0.7310   11.2540   -6.8770 C   0  0  0  0  0  0  0  0  0  0  0  0
    0.1600   10.2670   -7.7010 N   0  0  0  0  0  0  0  0  0  0  0  0
    1.7750   11.8550   -6.9620 O   0  0  0  0  0  0  0  0  0  0  0  0
    0.7340   12.1980   -3.4020 S   0  0  0  0  0  0  0  0  0  0  0  0
    0.0690   13.8850   -5.3680 C   0  0  0  0  0  0  0  0  0  0  0  0
    0.8570    9.6120   -8.7490 C   0  0  0  0  0  0  0  0  0  0  0  0
    0.6900   10.7740   -3.1490 O   0  0  0  0  0  0  0  0  0  0  0  0
    0.3640   13.1010   -2.3390 O   0  0  0  0  0  0  0  0  0  0  0  0
    2.3750   12.6740   -3.9500 C   0  0  0  0  0  0  0  0  0  0  0  0
    0.2730   14.9770   -4.3010 C   0  0  0  0  0  0  0  0  0  0  0  0
    1.2830   10.3100   -9.8890 C   0  0  0  0  0  0  0  0  0  0  0  0
    1.1460    8.2430   -8.6780 C   0  0  0  0  0  0  0  0  0  0  0  0
    0.2050   16.3850   -4.8980 C   0  0  0  0  0  0  0  0  0  0  0  0
    1.9770    9.6650  -10.9180 C   0  0  0  0  0  0  0  0  0  0  0  0
    1.8410    7.5970   -9.7060 C   0  0  0  0  0  0  0  0  0  0  0  0
   -1.1580   16.8020   -4.9070 O   0  0  0  0  0  0  0  0  0  0  0  0
    2.2580    8.3060  -10.8250 C   0  0  0  0  0  0  0  0  0  0  0  0
   -1.5990   18.0810   -5.7840 P   0  0  1  0  0  0  0  0  0  0  0  0
   -0.2440   18.7650   -6.2480 O   0  0  0  0  0  0  0  0  0  0  0  0
   -2.6110   17.7830   -6.8270 O   0  0  0  0  0  0  0  0  0  0  0  0
   -2.1140   19.1140   -4.6890 O   0  0  0  0  0  0  0  0  0  0  0  0
   -0.1380   19.6560   -7.5480 P   0  0  0  0  0  0  0  0  0  0  0  0
   -1.5840   20.2030   -7.9260 O   0  0  0  0  0  0  0  0  0  0  0  0
    0.9650   20.6710   -7.5320 O   0  0  0  0  0  0  0  0  0  0  0  0
    0.0880   18.5740   -8.7030 O   0  0  0  0  0  0  0  0  0  0  0  0
  1  2  1  0
  2  3  1  0
  2  4  2  0
  3  5  1  0
  4  6  1  0
  4  7  1  0
  3  8  1  0
  7  8  1  0
  7  9  2  0
 10  6  1  0
  6 11  1  0
  8 12  1  0
 10 13  2  0
 10 14  2  0
 10 15  1  0
 11 16  1  0
 12 17  2  0
 12 18  1  0
 16 19  1  0
 17 20  1  0
 18 21  2  0
 19 22  1  0
 20 23  2  0
 21 23  1  0
 22 24  1  0
 24 25  1  0
 24 26  2  0
 24 27  1  1
 25 28  1  0
 28 29  1  0
 28 30  2  0
 28 31  1  0
M  END
>  <comRMSD>  (164) 
0.372927

>  <∆∆G>  (164) 
-15.566691

>  <N_constrained_atoms>  (164) 
28.0

>  <LE>  (164) 
-0.502151

>  <ref_pdb>  (164) 
x0104_0

>  <ref_mols>  (164) 


>  <%Rank>  (164) 
2.796843

>  <generation_date>  (164) 
nan

>  <method>  (164) 
nan

>  <submitter_email>  (164) 
nan

>  <original SMILES>  (164) 
Cc1c(N(CCCOP(=O)(O)OP(=O)(O)O)S(C)(=O)=O)c(=O)n(-c2ccccc2)n1C

>  <ref_url>  (164) 
nan

>  <submitter_name>  (164) 
nan

>  <submitter_institution>  (164) 
nan

$$$$
x0722_0_A_α-x0628_0_A_α
     RDKit          3D

 26 27  0  0  0  0  0  0  0  0999 V2000
   -4.3950   15.8450    2.3090 C   0  0  0  0  0  0  0  0  0  0  0  0
   -3.4360   15.3320    1.3460 C   0  0  0  0  0  0  0  0  0  0  0  0
   -2.2650   14.9380    1.8000 N   0  0  0  0  0  0  0  0  0  0  0  0
   -3.5650   15.2000   -0.0520 C   0  0  0  0  0  0  0  0  0  0  0  0
   -4.7630   15.5570   -0.8840 C   0  0  0  0  0  0  0  0  0  0  0  0
   -2.3270   14.6870   -0.4310 C   0  0  0  0  0  0  0  0  0  0  0  0
   -1.6000   14.5590    0.7320 N   0  0  0  0  0  0  0  0  0  0  0  0
   -0.2550   14.0890    0.9320 C   0  0  0  0  0  0  0  0  0  0  0  0
   -1.7800   14.3240   -1.7720 C   0  0  0  0  0  0  0  0  0  0  0  0
   -5.9830   14.7020   -0.5940 C   0  0  0  0  0  0  0  0  0  0  0  0
   -7.1360   15.0740   -0.8010 O   0  0  0  0  0  0  0  0  0  0  0  0
   -5.7450   13.4620   -0.0720 N   0  0  0  0  0  0  0  0  0  0  0  0
   -2.7940   14.5600   -2.8940 C   0  0  0  0  0  0  0  0  0  0  0  0
   -2.4870   13.7890   -4.1860 C   0  0  0  0  0  0  0  0  0  0  0  0
   -2.2960   12.2790   -3.9760 C   0  0  0  0  0  0  0  0  0  0  0  0
   -1.5160   11.5730   -5.0380 C   0  0  0  0  0  0  0  0  0  0  0  0
   -1.8470   10.4300   -5.6100 N   0  0  0  0  0  0  0  0  0  0  0  0
   -0.3260   12.0020   -5.5820 N   0  0  0  0  0  0  0  0  0  0  0  0
    0.4700   13.1860   -5.3110 C   0  0  0  0  0  0  0  0  0  0  0  0
   -0.8330   10.1970   -6.4940 C   0  0  0  0  0  0  0  0  0  0  0  0
    0.1170   11.1330   -6.5120 N   0  0  0  0  0  0  0  0  0  0  0  0
   -0.7910    9.0050   -7.3570 C   0  0  0  0  0  0  0  0  0  0  0  0
    1.6290   12.9480   -4.3520 C   0  0  0  0  0  0  0  0  0  0  0  0
    1.1810   12.2650   -3.0890 C   0  0  0  0  0  0  0  0  0  0  0  0
    0.5040   11.2540   -2.9850 O   0  0  0  0  0  0  0  0  0  0  0  0
    1.6130   12.9160   -1.9970 O   0  0  0  0  0  0  0  0  0  0  0  0
  1  2  1  0
  2  3  2  0
  2  4  1  0
  4  5  1  0
  4  6  2  0
  3  7  1  0
  6  7  1  0
  7  8  1  0
  6  9  1  0
  5 10  1  0
 10 11  2  0
 10 12  1  0
  9 13  1  0
 13 14  1  0
 14 15  1  0
 15 16  1  0
 16 17  2  0
 16 18  1  0
 18 19  1  0
 17 20  1  0
 18 21  1  0
 20 21  2  0
 20 22  1  0
 19 23  1  0
 23 24  1  0
 24 25  2  0
 24 26  1  0
M  END
>  <comRMSD>  (165) 
0.250105

>  <∆∆G>  (165) 
-6.515305

>  <N_constrained_atoms>  (165) 
24.0

>  <LE>  (165) 
-0.250589

>  <ref_pdb>  (165) 
x0104_0

>  <ref_mols>  (165) 
x0722_0_A_α,x0628_0_A_α

>  <%Rank>  (165) 
2.814001

>  <generation_date>  (165) 
nan

>  <method>  (165) 
nan

>  <submitter_email>  (165) 
nan

>  <original SMILES>  (165) 
Cc1nc(CCCCc2c(CC(N)=O)c(C)nn2C)n(CCC(=O)O)n1

>  <ref_url>  (165) 
nan

>  <submitter_name>  (165) 
nan

>  <submitter_institution>  (165) 
nan

$$$$
5cb5_D_0_D_γ-x0421_0_A_α
     RDKit          3D

 19 21  0  0  0  0  0  0  0  0999 V2000
    0.0730   12.6710   -4.0740 O   0  0  0  0  0  0  0  0  0  0  0  0
   -0.6430   13.9240   -4.0570 C   0  0  1  0  0  0  0  0  0  0  0  0
   -0.2660   14.7710   -2.8410 C   0  0  2  0  0  0  0  0  0  0  0  0
   -0.1440   14.7390   -5.2300 C   0  0  2  0  0  0  0  0  0  0  0  0
    0.7160   13.9510   -6.0390 O   0  0  0  0  0  0  0  0  0  0  0  0
   -1.2690   14.7300   -1.7870 N   0  0  0  0  0  0  0  0  0  0  0  0
   -0.0010   16.0980   -3.3460 O   0  0  0  0  0  0  0  0  0  0  0  0
    0.5760   15.9430   -4.6390 C   0  0  2  0  0  0  0  0  0  0  0  0
    0.4010   17.2330   -5.4320 C   0  0  0  0  0  0  0  0  0  0  0  0
   -2.5580   14.8650   -1.7910 C   0  0  0  0  0  0  0  0  0  0  0  0
   -3.3120   15.0930   -2.9140 N   0  0  0  0  0  0  0  0  0  0  0  0
   -3.3650   14.8050   -0.5760 C   0  0  0  0  0  0  0  0  0  0  0  0
   -2.8840   14.7470    0.7170 C   0  0  0  0  0  0  0  0  0  0  0  0
   -4.7680   14.7930   -0.5560 N   0  0  0  0  0  0  0  0  0  0  0  0
   -3.9790   14.6920    1.4960 N   0  0  0  0  0  0  0  0  0  0  0  0
   -5.0780   14.7200    0.7260 C   0  0  0  0  0  0  0  0  0  0  0  0
   -6.4880   14.6600    1.3620 C   0  0  0  0  0  0  0  0  0  0  0  0
   -7.7340   14.6660    0.5190 C   0  0  0  0  0  0  0  0  0  0  0  0
   -7.2880   13.4000    1.1980 C   0  0  0  0  0  0  0  0  0  0  0  0
  2  1  1  1
  2  3  1  0
  2  4  1  0
  4  5  1  1
  3  6  1  1
  3  7  1  0
  4  8  1  0
  7  8  1  0
  8  9  1  6
  6 10  2  3
 10 11  1  0
 10 12  1  0
 12 13  2  0
 12 14  1  0
 13 15  1  0
 14 16  2  0
 15 16  1  0
 16 17  1  0
 17 18  1  0
 17 19  1  0
 18 19  1  0
M  END
>  <comRMSD>  (166) 
0.393466

>  <∆∆G>  (166) 
-5.601158

>  <N_constrained_atoms>  (166) 
19.0

>  <LE>  (166) 
-0.294798

>  <ref_pdb>  (166) 
x0104_0

>  <ref_mols>  (166) 
x0421_0_A_α

>  <%Rank>  (166) 
2.83116

>  <generation_date>  (166) 
nan

>  <method>  (166) 
nan

>  <submitter_email>  (166) 
nan

>  <original SMILES>  (166) 
CC1OC(N=C(N)c2c[nH]c(C3CC3)n2)C(O)C1O

>  <ref_url>  (166) 
nan

>  <submitter_name>  (166) 
nan

>  <submitter_institution>  (166) 
nan

$$$$
x0837_0_A_α-x1012_0_A_α
     RDKit          3D

 20 21  0  0  0  0  0  0  0  0999 V2000
   -7.4930   14.5730    0.1370 O   0  0  0  0  0  0  0  0  0  0  0  0
   -6.2700   14.7550    0.1450 C   0  0  0  0  0  0  0  0  0  0  0  0
   -5.5370   14.7700    1.3770 N   0  0  0  0  0  0  0  0  0  0  0  0
   -5.4950   14.9850   -1.1030 C   0  0  0  0  0  0  0  0  0  0  0  0
   -4.1530   15.0940    1.2850 C   0  0  0  0  0  0  0  0  0  0  0  0
   -4.1060   14.3920   -1.0170 C   0  0  1  0  0  0  0  0  0  0  0  0
   -3.1200   15.0310   -2.8290 I   0  0  0  0  0  0  0  0  0  0  0  0
   -3.4540   14.9280    0.1880 C   0  0  0  0  0  0  0  0  0  0  0  0
   -1.5710   13.8650   -3.7370 C   0  0  1  0  0  0  0  0  0  0  0  0
   -1.4160   14.5010   -5.0850 C   0  0  0  0  0  0  0  0  0  0  0  0
   -0.2380   13.9090   -2.9630 C   0  0  1  0  0  0  0  0  0  0  0  0
    0.0870   12.6920   -2.2330 C   0  0  0  0  0  0  0  0  0  0  0  0
    0.8840   14.3360   -3.8810 C   0  0  0  0  0  0  0  0  0  0  0  0
   -0.6900   15.7790   -4.9820 N   0  0  0  0  0  0  0  0  0  0  0  0
   -1.2940   17.0540   -4.8200 C   0  0  0  0  0  0  0  0  0  0  0  0
    0.1040   11.4490   -2.8340 O   0  0  0  0  0  0  0  0  0  0  0  0
    0.3680   12.7630   -1.0250 O   0  0  0  0  0  0  0  0  0  0  0  0
    0.6800   15.6290   -4.6010 C   0  0  0  0  0  0  0  0  0  0  0  0
   -0.5190   18.2280   -4.7970 N   0  0  0  0  0  0  0  0  0  0  0  0
   -2.5320   17.1710   -4.6730 O   0  0  0  0  0  0  0  0  0  0  0  0
  1  2  2  0
  2  3  1  0
  2  4  1  0
  3  5  1  0
  4  6  1  0
  6  7  1  6
  5  8  2  0
  6  8  1  0
  9  7  1  1
  9 10  1  0
  9 11  1  0
 11 12  1  6
 11 13  1  0
 10 14  1  0
 14 15  1  0
 12 16  1  0
 12 17  2  0
 13 18  1  0
 14 18  1  0
 15 19  1  0
 15 20  2  0
M  END
>  <comRMSD>  (167) 
0.456162

>  <∆∆G>  (167) 
-7.631673

>  <N_constrained_atoms>  (167) 
20.0

>  <LE>  (167) 
-0.381584

>  <ref_pdb>  (167) 
x0104_0

>  <ref_mols>  (167) 
x0837_0_A_α,x1012_0_A_α

>  <%Rank>  (167) 
2.848318

>  <generation_date>  (167) 
nan

>  <method>  (167) 
nan

>  <submitter_email>  (167) 
nan

>  <original SMILES>  (167) 
NC(=O)N1CCC(C(=O)O)C(IC2C=CNC(=O)C2)C1

>  <ref_url>  (167) 
nan

>  <submitter_name>  (167) 
nan

>  <submitter_institution>  (167) 
nan

$$$$
5CB5_0_E_δ-x0685_1_A_α
     RDKit          3D

 24 26  0  0  0  0  0  0  0  0999 V2000
   -3.9850   15.5270    2.0490 N   0  0  0  0  0  0  0  0  0  0  0  0
   -2.9100   15.4530    1.0900 C   0  0  2  0  0  0  0  0  0  0  0  0
   -3.2860   14.7540   -0.2210 C   0  0  2  0  0  0  0  0  0  0  0  0
   -1.7610   14.8450    1.6820 N   0  0  0  0  0  0  0  0  0  0  0  0
   -2.0040   14.4000   -1.0170 C   0  0  1  0  0  0  0  0  0  0  0  0
   -4.1220   15.5470   -1.1290 N   0  0  0  0  0  0  0  0  0  0  0  0
   -0.5410   15.0000    0.8900 C   0  0  0  0  0  0  0  0  0  0  0  0
   -2.2970   14.9000   -2.3680 N   0  0  0  0  0  0  0  0  0  0  0  0
   -3.7340   15.0610   -2.4280 C   0  0  0  0  0  0  0  0  0  0  0  0
   -0.6860   14.8010   -0.5390 N   0  0  0  0  0  0  0  0  0  0  0  0
    0.4680   14.1410   -1.1220 C   0  0  0  0  0  0  0  0  0  0  0  0
    0.2160   12.7490   -1.2900 O   0  0  0  0  0  0  0  0  0  0  0  0
    0.6820   12.0210   -2.6440 S   0  0  0  0  0  0  0  0  0  0  0  0
   -0.2000   12.7610   -4.0110 C   0  0  0  0  0  0  0  0  0  0  0  0
    2.2290   12.2870   -2.9760 O   0  0  0  0  0  0  0  0  0  0  0  0
    0.3630   10.4410   -2.5840 O   0  0  0  0  0  0  0  0  0  0  0  0
   -1.3470   11.9230   -4.5800 C   0  0  0  0  0  0  0  0  0  0  0  0
   -1.0790   10.5070   -4.8680 N   0  0  0  0  0  0  0  0  0  0  0  0
   -1.3580   10.0300   -6.2360 C   0  0  0  0  0  0  0  0  0  0  0  0
   -0.6440    8.6900   -6.5020 C   0  0  0  0  0  0  0  0  0  0  0  0
   -1.0140   11.1230   -7.2810 C   0  0  0  0  0  0  0  0  0  0  0  0
    0.1660    8.7220   -7.7890 C   0  0  0  0  0  0  0  0  0  0  0  0
   -1.1960   10.6640   -8.7250 C   0  0  0  0  0  0  0  0  0  0  0  0
   -0.6900    9.2390   -8.9460 C   0  0  0  0  0  0  0  0  0  0  0  0
  2  1  1  1
  2  3  1  0
  2  4  1  0
  3  5  1  0
  3  6  1  6
  4  7  1  0
  5  8  1  6
  6  9  1  0
  8  9  1  0
  5 10  1  0
  7 10  1  0
 10 11  1  0
 11 12  1  0
 13 12  1  0
 13 14  1  0
 13 15  1  0
 13 16  1  0
 14 17  1  0
 17 18  1  0
 18 19  1  0
 19 20  1  0
 19 21  1  0
 20 22  1  0
 21 23  1  0
 22 24  1  0
 23 24  1  0
M  END
>  <comRMSD>  (168) 
0.422008

>  <∆∆G>  (168) 
-10.220323

>  <N_constrained_atoms>  (168) 
23.0

>  <LE>  (168) 
-0.425847

>  <ref_pdb>  (168) 
x0104_0

>  <ref_mols>  (168) 
x0685_1_A_α

>  <%Rank>  (168) 
2.865477

>  <generation_date>  (168) 
nan

>  <method>  (168) 
nan

>  <submitter_email>  (168) 
nan

>  <original SMILES>  (168) 
NC1NCN(COS(O)(O)CCNC2CCCCC2)C2NCNC12

>  <ref_url>  (168) 
nan

>  <submitter_name>  (168) 
nan

>  <submitter_institution>  (168) 
nan

$$$$
x0628_0_A_α-x0626_0_A_α
     RDKit          3D

 25 26  0  0  0  0  0  0  0  0999 V2000
   -0.7860    9.0170   -7.2870 C   0  0  0  0  0  0  0  0  0  0  0  0
   -0.8170   10.2130   -6.4250 C   0  0  0  0  0  0  0  0  0  0  0  0
   -1.8260   10.4480   -5.5290 N   0  0  0  0  0  0  0  0  0  0  0  0
    0.1320   11.1520   -6.4530 N   0  0  0  0  0  0  0  0  0  0  0  0
   -0.3030   12.0170   -5.5240 N   0  0  0  0  0  0  0  0  0  0  0  0
   -1.4820   11.5910   -4.9690 C   0  0  0  0  0  0  0  0  0  0  0  0
   -2.2250   12.3180   -3.9140 C   0  0  0  0  0  0  0  0  0  0  0  0
    0.4670   13.2130   -5.2380 C   0  0  0  0  0  0  0  0  0  0  0  0
    1.6300   12.9880   -4.2850 C   0  0  0  0  0  0  0  0  0  0  0  0
    1.2090   12.3330   -2.9890 C   0  0  0  0  0  0  0  0  0  0  0  0
    0.4440   11.3770   -2.9060 O   0  0  0  0  0  0  0  0  0  0  0  0
    1.8250   12.9420   -1.9370 O   0  0  0  0  0  0  0  0  0  0  0  0
    1.2200   14.1290   -1.3810 C   0  0  0  0  0  0  0  0  0  0  0  0
    0.2760   13.6930   -0.2620 C   0  0  0  0  0  0  0  0  0  0  0  0
   -0.2420   14.7450    0.6890 C   0  0  0  0  0  0  0  0  0  0  0  0
   -1.6720   14.8040    0.4050 C   0  0  0  0  0  0  0  0  0  0  0  0
   -2.5970   14.7890    1.4200 N   0  0  0  0  0  0  0  0  0  0  0  0
   -2.1740   14.8650   -0.8750 C   0  0  0  0  0  0  0  0  0  0  0  0
   -3.7870   14.8560    0.8640 C   0  0  0  0  0  0  0  0  0  0  0  0
   -3.8680   14.9310   -0.8370 S   0  0  0  0  0  0  0  0  0  0  0  0
   -5.0050   14.8710    1.4490 N   0  0  0  0  0  0  0  0  0  0  0  0
   -6.1860   14.6790    0.8030 C   0  0  0  0  0  0  0  0  0  0  0  0
   -6.2240   14.8030   -0.4250 O   0  0  0  0  0  0  0  0  0  0  0  0
   -7.4170   14.3290    1.6130 C   0  0  0  0  0  0  0  0  0  0  0  0
   -8.6990   14.6690    0.8760 C   0  0  0  0  0  0  0  0  0  0  0  0
  1  2  1  0
  2  3  1  0
  2  4  2  0
  4  5  1  0
  3  6  2  0
  5  6  1  0
  6  7  1  0
  5  8  1  0
  8  9  1  0
  9 10  1  0
 10 11  2  0
 10 12  1  0
 12 13  1  0
 13 14  1  0
 14 15  1  0
 15 16  1  0
 16 17  1  0
 16 18  2  0
 17 19  2  0
 18 20  1  0
 19 20  1  0
 19 21  1  0
 21 22  1  0
 22 23  2  0
 22 24  1  0
 24 25  1  0
M  END
>  <comRMSD>  (169) 
0.279843

>  <∆∆G>  (169) 
-8.938226

>  <N_constrained_atoms>  (169) 
23.0

>  <LE>  (169) 
-0.357529

>  <ref_pdb>  (169) 
x0104_0

>  <ref_mols>  (169) 
x0628_0_A_α,x0626_0_A_α

>  <%Rank>  (169) 
2.882636

>  <generation_date>  (169) 
nan

>  <method>  (169) 
nan

>  <submitter_email>  (169) 
nan

>  <original SMILES>  (169) 
CCC(=O)Nc1nc(CCCOC(=O)CCn2nc(C)nc2C)cs1

>  <ref_url>  (169) 
nan

>  <submitter_name>  (169) 
nan

>  <submitter_institution>  (169) 
nan

$$$$
x0290_0_A_α-x0805_0_A_β
     RDKit          3D

 22 23  0  0  0  0  0  0  0  0999 V2000
   -7.7010   13.8150    0.8750 N   0  0  0  0  0  0  0  0  0  0  0  0
   -8.6040   14.9440    0.7610 C   0  0  0  0  0  0  0  0  0  0  0  0
   -6.5350   14.1220    1.7300 C   0  0  0  0  0  0  0  0  0  0  0  0
   -5.3040   14.4480    0.8650 C   0  0  0  0  0  0  0  0  0  0  0  0
   -5.3750   14.4920   -0.3690 O   0  0  0  0  0  0  0  0  0  0  0  0
   -4.0970   14.6900    1.4580 N   0  0  0  0  0  0  0  0  0  0  0  0
   -2.8180   14.6210    0.9030 C   0  0  0  0  0  0  0  0  0  0  0  0
   -1.7160   14.5900    1.6740 N   0  0  0  0  0  0  0  0  0  0  0  0
   -2.7540   14.5800   -0.4790 C   0  0  0  0  0  0  0  0  0  0  0  0
   -0.5210   14.5330    1.0350 C   0  0  0  0  0  0  0  0  0  0  0  0
   -1.5260   14.5070   -1.1440 C   0  0  0  0  0  0  0  0  0  0  0  0
   -1.5890   14.4550   -2.6670 C   0  0  0  0  0  0  0  0  0  0  0  0
   -0.3650   14.4890   -0.3540 C   0  0  0  0  0  0  0  0  0  0  0  0
   -0.3480   14.2790   -3.5910 C   0  0  2  0  0  0  0  0  0  0  0  0
    0.8200   13.3960   -3.1190 C   0  0  1  0  0  0  0  0  0  0  0  0
    0.2890   15.6240   -3.8650 C   0  0  0  0  0  0  0  0  0  0  0  0
    0.4220   12.2170   -2.3020 C   0  0  0  0  0  0  0  0  0  0  0  0
    1.6980   12.9890   -4.2810 C   0  0  0  0  0  0  0  0  0  0  0  0
    1.6750   15.4150   -4.4580 C   0  0  0  0  0  0  0  0  0  0  0  0
    0.2780   11.0600   -2.9820 O   0  0  0  0  0  0  0  0  0  0  0  0
    0.2350   12.2790   -1.1160 O   0  0  0  0  0  0  0  0  0  0  0  0
    1.9150   14.1380   -5.0740 O   0  0  0  0  0  0  0  0  0  0  0  0
  1  2  1  0
  1  3  1  0
  3  4  1  0
  4  5  2  0
  4  6  1  0
  6  7  1  0
  7  8  2  0
  7  9  1  0
  8 10  1  0
  9 11  2  0
 11 12  1  0
 10 13  2  0
 11 13  1  0
 14 12  1  1
 14 15  1  0
 14 16  1  0
 15 17  1  6
 15 18  1  0
 16 19  1  0
 17 20  1  0
 17 21  2  0
 18 22  1  0
 19 22  1  0
M  END
>  <comRMSD>  (170) 
0.503358

>  <∆∆G>  (170) 
-8.853239

>  <N_constrained_atoms>  (170) 
22.0

>  <LE>  (170) 
-0.40242

>  <ref_pdb>  (170) 
x0104_0

>  <ref_mols>  (170) 
x0290_0_A_α,x0805_0_A_β

>  <%Rank>  (170) 
2.899794

>  <generation_date>  (170) 
nan

>  <method>  (170) 
nan

>  <submitter_email>  (170) 
nan

>  <original SMILES>  (170) 
CNCC(=O)Nc1cc(CC2CCOCC2C(=O)O)ccn1

>  <ref_url>  (170) 
nan

>  <submitter_name>  (170) 
nan

>  <submitter_institution>  (170) 
nan

$$$$
x0727_0_A_α-x0438_0_A_α
     RDKit          3D

 30 32  0  0  0  0  0  0  0  0999 V2000
    0.1450   11.4260   -5.4900 N   0  0  0  0  0  0  0  0  0  0  0  0
    0.8830   12.3590   -4.6220 C   0  0  1  0  0  0  0  0  0  0  0  0
    0.4950   13.7950   -4.9270 C   0  0  0  0  0  0  0  0  0  0  0  0
    0.7230   11.1290   -6.7100 C   0  0  0  0  0  0  0  0  0  0  0  0
    1.6650   11.7630   -7.1190 O   0  0  0  0  0  0  0  0  0  0  0  0
    0.5880   12.0260   -3.1470 C   0  0  0  0  0  0  0  0  0  0  0  0
    0.1220    9.9490   -7.4770 C   0  0  0  0  0  0  0  0  0  0  0  0
    0.1740   10.9320   -2.7590 O   0  0  0  0  0  0  0  0  0  0  0  0
    0.8570   13.1030   -2.3340 O   0  0  0  0  0  0  0  0  0  0  0  0
   -1.1750   10.3130   -8.2170 C   0  0  0  0  0  0  0  0  0  0  0  0
   -0.2290    8.7650   -6.5540 C   0  0  0  0  0  0  0  0  0  0  0  0
   -0.0540   13.3290   -1.2300 C   0  0  0  0  0  0  0  0  0  0  0  0
   -2.1030    9.1290   -8.0020 C   0  0  0  0  0  0  0  0  0  0  0  0
   -1.7400    8.6150   -6.6240 C   0  0  0  0  0  0  0  0  0  0  0  0
   -0.6450   14.7470   -1.2940 C   0  0  0  0  0  0  0  0  0  0  0  0
   -1.4260   15.1730   -0.0330 C   0  0  0  0  0  0  0  0  0  0  0  0
   -2.9440   15.1240   -0.1900 C   0  0  0  0  0  0  0  0  0  0  0  0
   -3.5550   15.5050   -1.3990 C   0  0  0  0  0  0  0  0  0  0  0  0
   -3.7570   14.6840    0.8840 C   0  0  0  0  0  0  0  0  0  0  0  0
   -5.1540   14.6280    0.7060 C   0  0  0  0  0  0  0  0  0  0  0  0
   -4.9480   15.4540   -1.5790 C   0  0  0  0  0  0  0  0  0  0  0  0
   -6.1420   14.2330    1.5780 N   0  0  0  0  0  0  0  0  0  0  0  0
   -5.7130   15.0070   -0.5050 C   0  0  0  0  0  0  0  0  0  0  0  0
   -7.0670   14.8230   -0.3360 N   0  0  0  0  0  0  0  0  0  0  0  0
   -7.2830   14.3490    0.9360 C   0  0  0  0  0  0  0  0  0  0  0  0
   -8.6280   14.0100    1.4810 C   0  0  0  0  0  0  0  0  0  0  0  0
   -9.3060   15.2820    2.5370 S   0  0  0  0  0  0  0  0  0  0  0  0
   -8.1260   15.5150    3.8590 C   0  0  0  0  0  0  0  0  0  0  0  0
  -10.5360   14.7580    3.1160 O   0  0  0  0  0  0  0  0  0  0  0  0
   -9.3820   16.4990    1.7550 O   0  0  0  0  0  0  0  0  0  0  0  0
  1  2  1  0
  2  3  1  6
  1  4  1  0
  4  5  2  0
  2  6  1  0
  4  7  1  0
  6  8  2  0
  6  9  1  0
  7 10  1  0
  7 11  1  0
  9 12  1  0
 10 13  1  0
 11 14  1  0
 13 14  1  0
 12 15  1  0
 15 16  1  0
 16 17  1  0
 17 18  2  0
 17 19  1  0
 19 20  2  0
 18 21  1  0
 20 22  1  0
 20 23  1  0
 21 23  2  0
 23 24  1  0
 22 25  2  0
 24 25  1  0
 25 26  1  0
 27 26  1  0
 27 28  1  0
 27 29  2  0
 27 30  2  0
M  END
>  <comRMSD>  (171) 
0.241596

>  <∆∆G>  (171) 
-8.46145

>  <N_constrained_atoms>  (171) 
27.0

>  <LE>  (171) 
-0.282048

>  <ref_pdb>  (171) 
x0104_0

>  <ref_mols>  (171) 
x0727_0_A_α,x0438_0_A_α

>  <%Rank>  (171) 
2.916953

>  <generation_date>  (171) 
nan

>  <method>  (171) 
nan

>  <submitter_email>  (171) 
nan

>  <original SMILES>  (171) 
C[C@H](NC(=O)C1CCCC1)C(=O)OCCCc1ccc2[nH]c(CS(C)(=O)=O)nc2c1

>  <ref_url>  (171) 
nan

>  <submitter_name>  (171) 
nan

>  <submitter_institution>  (171) 
nan

$$$$
x0729_0_A_α-x0091_0_B_α
     RDKit          3D

 30 32  0  0  0  0  0  0  0  0999 V2000
   19.7960   25.4190    5.9190 C   0  0  0  0  0  0  0  0  0  0  0  0
   19.9040   26.9200    6.1700 C   0  0  1  0  0  0  0  0  0  0  0  0
   20.2470   27.0930    7.6160 N   0  0  0  0  0  0  0  0  0  0  0  0
   20.9090   27.5410    5.1900 C   0  0  1  0  0  0  0  0  0  0  0  0
   20.3040   27.7170    3.8540 C   0  0  0  0  0  0  0  0  0  0  0  0
   19.0030   27.1450    8.7990 S   0  0  0  0  0  0  0  0  0  0  0  0
   21.6200   27.5740    7.9820 C   0  0  0  0  0  0  0  0  0  0  0  0
   21.5660   28.8090    5.7070 C   0  0  0  0  0  0  0  0  0  0  0  0
   17.7570   27.1210    8.0750 O   0  0  0  0  0  0  0  0  0  0  0  0
   19.8660   27.7770    2.7820 N   0  0  0  0  0  0  0  0  0  0  0  0
   19.3250   28.2510    9.6780 O   0  0  0  0  0  0  0  0  0  0  0  0
   19.0910   25.6160    9.7630 C   0  0  0  0  0  0  0  0  0  0  0  0
   22.3190   28.5330    7.0000 C   0  0  0  0  0  0  0  0  0  0  0  0
   17.7600   25.3780   10.5230 C   0  0  0  0  0  0  0  0  0  0  0  0
   17.2710   23.9110   10.5980 C   0  0  0  0  0  0  0  0  0  0  0  0
   16.7000   23.4990   11.9480 C   0  0  2  0  0  0  0  0  0  0  0  0
   15.2000   23.4730   12.2210 C   0  0  2  0  0  0  0  0  0  0  0  0
   16.0730   24.5510   12.8170 C   0  0  0  0  0  0  0  0  0  0  0  0
   14.5820   22.5430   13.1370 N   0  0  0  0  0  0  0  0  0  0  0  0
   13.7900   21.4790   12.7410 C   0  0  0  0  0  0  0  0  0  0  0  0
   12.7910   21.0910   13.6280 N   0  0  0  0  0  0  0  0  0  0  0  0
   13.9690   20.9010   11.6760 O   0  0  0  0  0  0  0  0  0  0  0  0
   12.1890   21.9360   14.6520 C   0  0  0  0  0  0  0  0  0  0  0  0
   12.2800   19.7130   13.5310 C   0  0  0  0  0  0  0  0  0  0  0  0
   13.1830   18.7490   14.2460 C   0  0  0  0  0  0  0  0  0  0  0  0
   12.6830   17.7460   14.9870 N   0  0  0  0  0  0  0  0  0  0  0  0
   14.6010   18.7220   14.2640 C   0  0  0  0  0  0  0  0  0  0  0  0
   13.7750   17.0570   15.4920 O   0  0  0  0  0  0  0  0  0  0  0  0
   14.9180   17.6460   15.0570 C   0  0  0  0  0  0  0  0  0  0  0  0
   16.1910   17.0420   15.4980 C   0  0  0  0  0  0  0  0  0  0  0  0
  2  1  1  6
  2  3  1  0
  2  4  1  0
  4  5  1  6
  3  6  1  0
  3  7  1  0
  4  8  1  0
  6  9  2  0
  5 10  3  0
  6 11  2  0
  6 12  1  0
  7 13  1  0
  8 13  1  0
 12 14  1  0
 14 15  1  0
 16 15  1  6
 16 17  1  0
 16 18  1  0
 17 18  1  0
 17 19  1  1
 19 20  1  0
 20 21  1  0
 20 22  2  0
 21 23  1  0
 21 24  1  0
 24 25  1  0
 25 26  2  0
 25 27  1  0
 26 28  1  0
 27 29  2  0
 28 29  1  0
 29 30  1  0
M  END
>  <comRMSD>  (172) 
0.364785

>  <∆∆G>  (172) 
-9.094138

>  <N_constrained_atoms>  (172) 
28.0

>  <LE>  (172) 
-0.303138

>  <ref_pdb>  (172) 
x0104_0

>  <ref_mols>  (172) 
x0729_0_A_α,x0091_0_B_α

>  <%Rank>  (172) 
2.934111

>  <generation_date>  (172) 
nan

>  <method>  (172) 
nan

>  <submitter_email>  (172) 
nan

>  <original SMILES>  (172) 
Cc1cc(CN(C)C(=O)NC2CC2CCCS(=O)(=O)N2CCCC(C#N)C2C)no1

>  <ref_url>  (172) 
nan

>  <submitter_name>  (172) 
nan

>  <submitter_institution>  (172) 
nan

$$$$
x0727_0_A_α-x0591_0_A_α
     RDKit          3D

 28 29  0  0  0  0  0  0  0  0999 V2000
    0.2410   11.4740   -5.5880 N   0  0  0  0  0  0  0  0  0  0  0  0
    1.0950   12.2870   -4.7140 C   0  0  1  0  0  0  0  0  0  0  0  0
    0.8330   13.7670   -4.8860 C   0  0  0  0  0  0  0  0  0  0  0  0
    0.7440   11.1130   -6.8030 C   0  0  0  0  0  0  0  0  0  0  0  0
    1.6820   11.7080   -7.2450 O   0  0  0  0  0  0  0  0  0  0  0  0
    0.8340   11.8490   -3.2760 C   0  0  0  0  0  0  0  0  0  0  0  0
    0.0820    9.9300   -7.5010 C   0  0  0  0  0  0  0  0  0  0  0  0
    0.1640   10.8860   -2.9350 O   0  0  0  0  0  0  0  0  0  0  0  0
    1.4270   12.6400   -2.3640 O   0  0  0  0  0  0  0  0  0  0  0  0
   -0.4090   14.1160   -4.1130 C   0  0  0  0  0  0  0  0  0  0  0  0
   -1.2500   10.3470   -8.1310 C   0  0  0  0  0  0  0  0  0  0  0  0
   -0.2430    8.7710   -6.5460 C   0  0  0  0  0  0  0  0  0  0  0  0
   -1.5810   13.8010   -4.9260 N   0  0  0  0  0  0  0  0  0  0  0  0
   -2.1390    9.1170   -8.0100 C   0  0  0  0  0  0  0  0  0  0  0  0
   -1.7260    8.4720   -6.7010 C   0  0  0  0  0  0  0  0  0  0  0  0
   -2.6170   14.8790   -5.0590 S   0  0  1  0  0  0  0  0  0  0  0  0
   -1.5810   16.1920   -4.9410 N   0  0  0  0  0  0  0  0  0  0  0  0
   -3.3910   15.2260   -6.2230 O   0  0  0  0  0  0  0  0  0  0  0  0
   -3.6460   14.8190   -3.6400 C   0  0  0  0  0  0  0  0  0  0  0  0
   -3.1290   14.7520   -2.3400 C   0  0  0  0  0  0  0  0  0  0  0  0
   -5.0100   14.8440   -3.8570 C   0  0  0  0  0  0  0  0  0  0  0  0
   -4.0130   14.7200   -1.2580 C   0  0  0  0  0  0  0  0  0  0  0  0
   -5.8860   14.8180   -2.7870 C   0  0  0  0  0  0  0  0  0  0  0  0
   -5.4020   14.7580   -1.4840 C   0  0  0  0  0  0  0  0  0  0  0  0
   -6.3550   14.7340   -0.3470 C   0  0  0  0  0  0  0  0  0  0  0  0
   -5.8480   14.5700    0.9180 N   0  0  0  0  0  0  0  0  0  0  0  0
   -7.5530   14.8560   -0.5690 O   0  0  0  0  0  0  0  0  0  0  0  0
   -6.7550   14.5110    2.0380 C   0  0  0  0  0  0  0  0  0  0  0  0
  1  2  1  0
  2  3  1  1
  1  4  1  0
  4  5  2  0
  2  6  1  0
  4  7  1  0
  6  8  2  0
  6  9  1  0
  3 10  1  0
  7 11  1  0
  7 12  1  0
 10 13  1  0
 11 14  1  0
 12 15  1  0
 14 15  1  0
 13 16  2  0
 16 17  1  1
 16 18  2  0
 16 19  1  0
 19 20  2  0
 19 21  1  0
 20 22  1  0
 21 23  2  0
 22 24  2  0
 23 24  1  0
 24 25  1  0
 25 26  1  0
 25 27  2  0
 26 28  1  0
M  END
>  <comRMSD>  (173) 
0.36377

>  <∆∆G>  (173) 
-4.34961

>  <N_constrained_atoms>  (173) 
27.0

>  <LE>  (173) 
-0.155343

>  <ref_pdb>  (173) 
x0104_0

>  <ref_mols>  (173) 
x0727_0_A_α,x0591_0_A_α

>  <%Rank>  (173) 
2.95127

>  <generation_date>  (173) 
nan

>  <method>  (173) 
nan

>  <submitter_email>  (173) 
nan

>  <original SMILES>  (173) 
CNC(=O)c1ccc(S(N)(=O)=NCC[C@H](NC(=O)C2CCCC2)C(=O)O)cc1

>  <ref_url>  (173) 
nan

>  <submitter_name>  (173) 
nan

>  <submitter_institution>  (173) 
nan

$$$$
x0724_0_A_α-x0864_0_A_α
     RDKit          3D

 29 31  0  0  0  0  0  0  0  0999 V2000
   -8.6120   13.7860    4.3060 N   0  0  0  0  0  0  0  0  0  0  0  0
   -8.4920   13.9250    5.7500 C   0  0  0  0  0  0  0  0  0  0  0  0
   -8.4000   15.0720    3.6480 C   0  0  0  0  0  0  0  0  0  0  0  0
   -7.7470   14.8580    2.3290 C   0  0  0  0  0  0  0  0  0  0  0  0
   -6.4080   14.9370    2.0260 C   0  0  0  0  0  0  0  0  0  0  0  0
   -8.3330   14.5360    1.0890 C   0  0  0  0  0  0  0  0  0  0  0  0
   -7.4380   14.4260    0.1000 N   0  0  0  0  0  0  0  0  0  0  0  0
   -6.2390   14.6800    0.6930 N   0  0  0  0  0  0  0  0  0  0  0  0
   -5.0080   14.6670   -0.0280 C   0  0  0  0  0  0  0  0  0  0  0  0
   -3.8030   14.7500    0.6900 C   0  0  0  0  0  0  0  0  0  0  0  0
   -4.9700   14.5730   -1.4220 C   0  0  0  0  0  0  0  0  0  0  0  0
   -2.5780   14.7300    0.0190 C   0  0  0  0  0  0  0  0  0  0  0  0
   -3.7400   14.5540   -2.0890 C   0  0  0  0  0  0  0  0  0  0  0  0
   -2.5320   14.6290   -1.3750 C   0  0  0  0  0  0  0  0  0  0  0  0
   -1.2110   14.5910   -2.1140 C   0  0  0  0  0  0  0  0  0  0  0  0
    0.0370   14.6910   -1.2190 C   0  0  0  0  0  0  0  0  0  0  0  0
    1.2900   14.0970   -1.8610 C   0  0  0  0  0  0  0  0  0  0  0  0
    1.0690   12.6660   -1.9590 N   0  0  0  0  0  0  0  0  0  0  0  0
    0.7260   12.1060   -3.0550 C   0  0  0  0  0  0  0  0  0  0  0  0
    0.4950   12.7380   -4.4270 C   0  0  0  0  0  0  0  0  0  0  0  0
    0.5370   10.7690   -2.9920 O   0  0  0  0  0  0  0  0  0  0  0  0
   -0.2110   11.8190   -5.3210 N   0  0  0  0  0  0  0  0  0  0  0  0
   -1.3770   11.2070   -4.9020 C   0  0  0  0  0  0  0  0  0  0  0  0
    0.4840   11.3840   -6.4420 C   0  0  0  0  0  0  0  0  0  0  0  0
    1.5350   11.8950   -6.8060 O   0  0  0  0  0  0  0  0  0  0  0  0
   -1.8890   10.1680   -5.5740 C   0  0  0  0  0  0  0  0  0  0  0  0
   -0.0920   10.2450   -7.1900 C   0  0  0  0  0  0  0  0  0  0  0  0
   -1.2240    9.6740   -6.7570 C   0  0  0  0  0  0  0  0  0  0  0  0
   -1.9980    8.2280   -7.6470 Br  0  0  0  0  0  0  0  0  0  0  0  0
  1  2  1  0
  1  3  1  0
  3  4  1  0
  4  5  2  0
  4  6  1  0
  6  7  2  0
  5  8  1  0
  7  8  1  0
  8  9  1  0
  9 10  2  0
  9 11  1  0
 10 12  1  0
 11 13  2  0
 12 14  2  0
 13 14  1  0
 14 15  1  0
 15 16  1  0
 16 17  1  0
 17 18  1  0
 18 19  2  3
 19 20  1  0
 19 21  1  0
 20 22  1  0
 22 23  1  0
 22 24  1  0
 24 25  2  0
 23 26  2  0
 24 27  1  0
 26 28  1  0
 27 28  2  0
 28 29  1  0
M  END
>  <comRMSD>  (174) 
0.198996

>  <∆∆G>  (174) 
-7.09966

>  <N_constrained_atoms>  (174) 
26.0

>  <LE>  (174) 
-0.244816

>  <ref_pdb>  (174) 
x0104_0

>  <ref_mols>  (174) 
x0724_0_A_α,x0864_0_A_α

>  <%Rank>  (174) 
2.968428

>  <generation_date>  (174) 
nan

>  <method>  (174) 
nan

>  <submitter_email>  (174) 
nan

>  <original SMILES>  (174) 
CNCc1cnn(-c2ccc(CCCN=C(O)Cn3ccc(Br)cc3=O)cc2)c1

>  <ref_url>  (174) 
nan

>  <submitter_name>  (174) 
nan

>  <submitter_institution>  (174) 
nan

$$$$
x0421_0_A_α-x0727_0_A_α
     RDKit          3D

 26 28  0  0  0  0  0  0  0  0999 V2000
   -3.5890   15.1820   -2.7870 N   0  0  0  0  0  0  0  0  0  0  0  0
   -2.7970   14.8370   -1.7240 C   0  0  0  0  0  0  0  0  0  0  0  0
   -1.5610   14.4830   -1.6470 N   0  0  0  0  0  0  0  0  0  0  0  0
   -3.4980   14.8720   -0.4470 C   0  0  0  0  0  0  0  0  0  0  0  0
   -0.7240   14.3820   -2.8400 C   0  0  0  0  0  0  0  0  0  0  0  0
   -2.9220   15.0850    0.7900 C   0  0  0  0  0  0  0  0  0  0  0  0
   -4.8710   14.6830   -0.3100 N   0  0  0  0  0  0  0  0  0  0  0  0
    0.7400   14.2490   -2.3760 C   0  0  0  0  0  0  0  0  0  0  0  0
   -3.9420   15.0180    1.6790 N   0  0  0  0  0  0  0  0  0  0  0  0
   -5.0880   14.7740    0.9880 C   0  0  0  0  0  0  0  0  0  0  0  0
    1.2590   12.8970   -2.4430 O   0  0  0  0  0  0  0  0  0  0  0  0
   -6.4800   14.6150    1.6580 C   0  0  0  0  0  0  0  0  0  0  0  0
    0.6540   11.9960   -3.2680 C   0  0  0  0  0  0  0  0  0  0  0  0
   -7.7230   14.6570    0.8110 C   0  0  0  0  0  0  0  0  0  0  0  0
   -7.2990   13.3730    1.4680 C   0  0  0  0  0  0  0  0  0  0  0  0
    0.9020   12.3290   -4.7510 C   0  0  1  0  0  0  0  0  0  0  0  0
    0.0120   11.0190   -2.8790 O   0  0  0  0  0  0  0  0  0  0  0  0
    0.1540   11.3870   -5.5830 N   0  0  0  0  0  0  0  0  0  0  0  0
    0.5040   13.7510   -5.1210 C   0  0  0  0  0  0  0  0  0  0  0  0
    0.7170   11.0790   -6.7950 C   0  0  0  0  0  0  0  0  0  0  0  0
    1.6510   11.7070   -7.2150 O   0  0  0  0  0  0  0  0  0  0  0  0
    0.1060    9.8940   -7.5340 C   0  0  0  0  0  0  0  0  0  0  0  0
   -1.1950   10.2680   -8.2470 C   0  0  0  0  0  0  0  0  0  0  0  0
   -0.2340    8.7300   -6.5850 C   0  0  0  0  0  0  0  0  0  0  0  0
   -2.1700    9.1310   -7.9850 C   0  0  0  0  0  0  0  0  0  0  0  0
   -1.7370    8.5240   -6.6640 C   0  0  0  0  0  0  0  0  0  0  0  0
  1  2  1  0
  2  3  2  3
  2  4  1  0
  3  5  1  0
  4  6  2  0
  4  7  1  0
  5  8  1  0
  6  9  1  0
  7 10  2  0
  9 10  1  0
  8 11  1  0
 10 12  1  0
 11 13  1  0
 12 14  1  0
 12 15  1  0
 14 15  1  0
 13 16  1  0
 13 17  2  0
 16 18  1  0
 16 19  1  1
 18 20  1  0
 20 21  2  0
 20 22  1  0
 22 23  1  0
 22 24  1  0
 23 25  1  0
 24 26  1  0
 25 26  1  0
M  END
>  <comRMSD>  (175) 
0.249655

>  <∆∆G>  (175) 
-6.363349

>  <N_constrained_atoms>  (175) 
24.0

>  <LE>  (175) 
-0.244744

>  <ref_pdb>  (175) 
x0104_0

>  <ref_mols>  (175) 
x0421_0_A_α,x0727_0_A_α

>  <%Rank>  (175) 
2.985587

>  <generation_date>  (175) 
nan

>  <method>  (175) 
nan

>  <submitter_email>  (175) 
nan

>  <original SMILES>  (175) 
C[C@H](NC(=O)C1CCCC1)C(=O)OCCN=C(N)c1c[nH]c(C2CC2)n1

>  <ref_url>  (175) 
nan

>  <submitter_name>  (175) 
nan

>  <submitter_institution>  (175) 
nan

$$$$
EU0342_0_A_α-x0471_0_A_α
     RDKit          3D

 21 22  0  0  0  0  0  0  0  0999 V2000
    0.4580   14.8370   -0.1750 C   0  0  0  0  0  0  0  0  0  0  0  0
   -0.9440   14.7440   -0.4250 N   0  0  0  0  0  0  0  0  0  0  0  0
   -1.8270   14.8470    0.6200 C   0  0  0  0  0  0  0  0  0  0  0  0
   -1.5080   14.6120    1.7880 O   0  0  0  0  0  0  0  0  0  0  0  0
   -3.2350   15.2840    0.2250 C   0  0  2  0  0  0  0  0  0  0  0  0
   -4.2400   14.6970    1.1600 C   0  0  0  0  0  0  0  0  0  0  0  0
   -3.6100   14.9960   -1.2090 C   0  0  0  0  0  0  0  0  0  0  0  0
   -5.5390   15.2810    0.8410 N   0  0  0  0  0  0  0  0  0  0  0  0
   -4.9180   14.8620   -1.5300 C   0  0  0  0  0  0  0  0  0  0  0  0
   -6.0170   14.9930   -0.5090 C   0  0  2  0  0  0  0  0  0  0  0  0
   -6.4700   14.7260    1.7990 N   0  0  0  0  0  0  0  0  0  0  0  0
   -6.8300   16.0370   -0.9660 O   0  0  0  0  0  0  0  0  0  0  0  0
   -6.9160   13.8810   -0.3890 N   0  0  0  0  0  0  0  0  0  0  0  0
   -7.3130   13.8140    1.0360 C   0  0  2  0  0  0  0  0  0  0  0  0
   -8.7850   14.2030    1.2990 C   0  0  0  0  0  0  0  0  0  0  0  0
   -9.1820   13.9770    2.6900 N   0  0  0  0  0  0  0  0  0  0  0  0
   -9.0630   14.9570    3.6580 C   0  0  0  0  0  0  0  0  0  0  0  0
   -9.2420   16.1470    3.4220 O   0  0  0  0  0  0  0  0  0  0  0  0
   -8.7060   14.4170    5.0440 C   0  0  0  0  0  0  0  0  0  0  0  0
   -9.8860   13.6460    5.6410 C   0  0  0  0  0  0  0  0  0  0  0  0
   -8.2850   15.5510    5.9770 C   0  0  0  0  0  0  0  0  0  0  0  0
  1  2  1  0
  2  3  1  0
  3  4  2  0
  5  3  1  1
  5  6  1  0
  5  7  1  0
  6  8  1  0
  7  9  2  0
  8 10  1  0
  9 10  1  0
  8 11  1  0
 10 12  1  6
 10 13  1  0
 11 14  1  0
 13 14  1  0
 14 15  1  6
 15 16  1  0
 16 17  1  0
 17 18  2  0
 17 19  1  0
 19 20  1  0
 19 21  1  0
M  END
>  <comRMSD>  (176) 
0.436596

>  <∆∆G>  (176) 
-6.298733

>  <N_constrained_atoms>  (176) 
21.0

>  <LE>  (176) 
-0.29994

>  <ref_pdb>  (176) 
x0104_0

>  <ref_mols>  (176) 
x0471_0_A_α

>  <%Rank>  (176) 
3.002745

>  <generation_date>  (176) 
nan

>  <method>  (176) 
nan

>  <submitter_email>  (176) 
nan

>  <original SMILES>  (176) 
CNC(=O)C1C=CC2(O)NC(CNC(=O)C(C)C)NN2C1

>  <ref_url>  (176) 
nan

>  <submitter_name>  (176) 
nan

>  <submitter_institution>  (176) 
nan

$$$$
x1012_0_A_α-x0837_0_A_α
     RDKit          3D

 20 21  0  0  0  0  0  0  0  0999 V2000
   -0.1860   18.2900   -4.7830 N   0  0  0  0  0  0  0  0  0  0  0  0
   -1.1750   17.2690   -4.8120 C   0  0  0  0  0  0  0  0  0  0  0  0
   -2.3840   17.5690   -4.7740 O   0  0  0  0  0  0  0  0  0  0  0  0
   -0.7410   15.9240   -4.8540 N   0  0  0  0  0  0  0  0  0  0  0  0
   -1.7490   14.9690   -4.4760 C   0  0  0  0  0  0  0  0  0  0  0  0
    0.6840   15.5800   -4.7690 C   0  0  0  0  0  0  0  0  0  0  0  0
   -1.3330   14.3920   -3.1620 C   0  0  1  0  0  0  0  0  0  0  0  0
    1.0060   14.4310   -3.8250 C   0  0  0  0  0  0  0  0  0  0  0  0
   -3.0090   13.5850   -2.1730 I   0  0  0  0  0  0  0  0  0  0  0  0
   -0.1560   13.5410   -3.5160 C   0  0  1  0  0  0  0  0  0  0  0  0
    0.1730   12.5720   -2.4240 C   0  0  0  0  0  0  0  0  0  0  0  0
   -3.9990   15.1640   -1.0780 C   0  0  2  0  0  0  0  0  0  0  0  0
    0.2600   11.2280   -2.7550 O   0  0  0  0  0  0  0  0  0  0  0  0
    0.3840   12.8700   -1.2220 O   0  0  0  0  0  0  0  0  0  0  0  0
   -3.5040   15.2760    0.2990 C   0  0  0  0  0  0  0  0  0  0  0  0
   -5.4830   15.0620   -1.2040 C   0  0  0  0  0  0  0  0  0  0  0  0
   -4.2090   15.1580    1.3840 C   0  0  0  0  0  0  0  0  0  0  0  0
   -6.2150   14.8720    0.0680 C   0  0  0  0  0  0  0  0  0  0  0  0
   -7.4570   14.6990    0.0150 O   0  0  0  0  0  0  0  0  0  0  0  0
   -5.6000   14.8840    1.3430 N   0  0  0  0  0  0  0  0  0  0  0  0
  1  2  1  0
  2  3  2  0
  2  4  1  0
  4  5  1  0
  4  6  1  0
  5  7  1  0
  6  8  1  0
  7  9  1  6
  7 10  1  0
  8 10  1  0
 10 11  1  1
 12  9  1  1
 11 13  1  0
 11 14  2  0
 12 15  1  0
 12 16  1  0
 15 17  2  0
 16 18  1  0
 18 19  2  0
 17 20  1  0
 18 20  1  0
M  END
>  <comRMSD>  (177) 
0.477605

>  <∆∆G>  (177) 
-8.355392

>  <N_constrained_atoms>  (177) 
20.0

>  <LE>  (177) 
-0.41777

>  <ref_pdb>  (177) 
x0104_0

>  <ref_mols>  (177) 
x1012_0_A_α,x0837_0_A_α

>  <%Rank>  (177) 
3.019904

>  <generation_date>  (177) 
nan

>  <method>  (177) 
nan

>  <submitter_email>  (177) 
nan

>  <original SMILES>  (177) 
NC(=O)N1CCC(C(=O)O)C(IC2C=CNC(=O)C2)C1

>  <ref_url>  (177) 
nan

>  <submitter_name>  (177) 
nan

>  <submitter_institution>  (177) 
nan

$$$$
5cms_R_17_R_γ-EU0342_0_A_α
     RDKit          3D

 20 21  0  0  0  0  0  0  0  0999 V2000
    0.2100   12.3970   -3.6930 O   0  0  0  0  0  0  0  0  0  0  0  0
   -0.3640   13.6400   -4.1080 C   0  0  1  0  0  0  0  0  0  0  0  0
   -0.5470   14.6470   -2.9550 C   0  0  1  0  0  0  0  0  0  0  0  0
    0.5810   14.3070   -5.1100 C   0  0  2  0  0  0  0  0  0  0  0  0
    1.6570   13.4260   -5.4300 O   0  0  0  0  0  0  0  0  0  0  0  0
   -0.6140   13.9840   -1.5300 C   0  0  0  0  0  0  0  0  0  0  0  0
    0.5050   15.6380   -3.0980 O   0  0  0  0  0  0  0  0  0  0  0  0
    1.0230   15.6160   -4.4490 C   0  0  2  0  0  0  0  0  0  0  0  0
    0.5670   16.8570   -5.2060 C   0  0  0  0  0  0  0  0  0  0  0  0
   -0.8220   14.8890   -0.3530 N   0  0  0  0  0  0  0  0  0  0  0  0
    0.3800   15.2400    0.3260 C   0  0  0  0  0  0  0  0  0  0  0  0
   -1.8770   14.6460    0.5290 C   0  0  0  0  0  0  0  0  0  0  0  0
   -1.6420   14.5420    1.7450 O   0  0  0  0  0  0  0  0  0  0  0  0
   -3.3200   14.5190    0.0450 C   0  0  1  0  0  0  0  0  0  0  0  0
   -4.2570   15.2440    0.9890 C   0  0  0  0  0  0  0  0  0  0  0  0
   -3.5940   15.0270   -1.3380 C   0  0  0  0  0  0  0  0  0  0  0  0
   -5.6240   15.0720    0.5720 N   0  0  0  0  0  0  0  0  0  0  0  0
   -4.8470   15.3460   -1.6970 C   0  0  0  0  0  0  0  0  0  0  0  0
   -5.9720   15.2050   -0.7390 C   0  0  0  0  0  0  0  0  0  0  0  0
   -7.1400   15.2040   -1.1020 O   0  0  0  0  0  0  0  0  0  0  0  0
  2  1  1  1
  2  3  1  0
  2  4  1  0
  4  5  1  1
  3  6  1  1
  3  7  1  0
  4  8  1  0
  7  8  1  0
  8  9  1  6
  6 10  1  0
 10 11  1  0
 10 12  1  0
 12 13  2  0
 14 12  1  1
 14 15  1  0
 14 16  1  0
 15 17  1  0
 16 18  2  0
 17 19  1  0
 18 19  1  0
 19 20  2  0
M  END
>  <comRMSD>  (178) 
0.356909

>  <∆∆G>  (178) 
-9.508456

>  <N_constrained_atoms>  (178) 
19.0

>  <LE>  (178) 
-0.475423

>  <ref_pdb>  (178) 
x0104_0

>  <ref_mols>  (178) 


>  <%Rank>  (178) 
3.037062

>  <generation_date>  (178) 
nan

>  <method>  (178) 
nan

>  <submitter_email>  (178) 
nan

>  <original SMILES>  (178) 
CC1OC(CN(C)C(=O)C2C=CC(=O)NC2)C(O)C1O

>  <ref_url>  (178) 
nan

>  <submitter_name>  (178) 
nan

>  <submitter_institution>  (178) 
nan

$$$$
6mea_B_0_B_β-6mea_A_0_A_β
     RDKit          3D

  9  8  0  0  0  0  0  0  0  0999 V2000
   -1.5290   20.3230   -8.0160 O   0  0  0  0  0  0  0  0  0  0  0  0
   -0.0970   19.7330   -7.6230 P   0  0  0  0  0  0  0  0  0  0  0  0
   -0.2830   18.8770   -6.3330 O   0  0  0  0  0  0  0  0  0  0  0  0
    0.9850   20.7600   -7.5920 O   0  0  0  0  0  0  0  0  0  0  0  0
    0.1180   18.6200   -8.7550 O   0  0  0  0  0  0  0  0  0  0  0  0
   -1.5850   18.1440   -5.8500 P   0  0  0  0  0  0  0  0  0  0  0  0
   -1.0670   16.8000   -5.1750 O   0  0  0  0  0  0  0  0  0  0  0  0
   -2.6190   17.9350   -6.8910 O   0  0  0  0  0  0  0  0  0  0  0  0
   -2.0350   19.0500   -4.6340 O   0  0  0  0  0  0  0  0  0  0  0  0
  1  2  1  0
  2  3  1  0
  2  4  2  0
  2  5  1  0
  3  6  1  0
  6  7  1  0
  6  8  2  0
  6  9  1  0
M  END
>  <comRMSD>  (179) 
0.488927

>  <∆∆G>  (179) 
-9.057177

>  <N_constrained_atoms>  (179) 
9.0

>  <LE>  (179) 
-1.006353

>  <ref_pdb>  (179) 
x0104_0

>  <ref_mols>  (179) 


>  <%Rank>  (179) 
3.054221

>  <generation_date>  (179) 
nan

>  <method>  (179) 
nan

>  <submitter_email>  (179) 
nan

>  <original SMILES>  (179) 
O=P(O)(O)OP(=O)(O)O

>  <ref_url>  (179) 
nan

>  <submitter_name>  (179) 
nan

>  <submitter_institution>  (179) 
nan

$$$$
x0290_0_A_α-x0852_0_B_α
     RDKit          3D

 24 25  0  0  0  0  0  0  0  0999 V2000
   -7.8090   13.8840    0.7450 N   0  0  0  0  0  0  0  0  0  0  0  0
   -8.5170   14.9640    0.0220 C   0  0  0  0  0  0  0  0  0  0  0  0
   -9.9520   15.3890    0.4720 C   0  0  0  0  0  0  0  0  0  0  0  0
   -6.6220   14.2540    1.5730 C   0  0  0  0  0  0  0  0  0  0  0  0
   -5.3560   14.4320    0.7300 C   0  0  0  0  0  0  0  0  0  0  0  0
   -5.3990   14.3620   -0.5040 O   0  0  0  0  0  0  0  0  0  0  0  0
   -4.1430   14.6620    1.3100 N   0  0  0  0  0  0  0  0  0  0  0  0
   -9.9280   16.4210    1.4790 O   0  0  0  0  0  0  0  0  0  0  0  0
   -2.8510   14.6330    0.7910 C   0  0  0  0  0  0  0  0  0  0  0  0
   -9.3490   16.0460    2.6560 C   0  0  0  0  0  0  0  0  0  0  0  0
   -1.8520   14.5710    1.7100 N   0  0  0  0  0  0  0  0  0  0  0  0
   -2.5890   14.6600   -0.5670 C   0  0  0  0  0  0  0  0  0  0  0  0
   -8.5420   14.9380    2.7840 C   0  0  0  0  0  0  0  0  0  0  0  0
   -9.5920   16.8300    3.7920 C   0  0  0  0  0  0  0  0  0  0  0  0
   -0.5790   14.5320    1.2540 C   0  0  0  0  0  0  0  0  0  0  0  0
   -1.2660   14.6190   -1.0190 C   0  0  0  0  0  0  0  0  0  0  0  0
   -7.9680   14.6060    4.0000 C   0  0  0  0  0  0  0  0  0  0  0  0
   -9.0350   16.4960    5.0300 C   0  0  0  0  0  0  0  0  0  0  0  0
   -0.9810   14.6420   -2.4910 C   0  0  0  0  0  0  0  0  0  0  0  0
   -9.3390   17.3090    6.1650 C   0  0  0  0  0  0  0  0  0  0  0  0
   -0.2390   14.5550   -0.0830 C   0  0  0  0  0  0  0  0  0  0  0  0
   -8.2080   15.3800    5.1210 C   0  0  0  0  0  0  0  0  0  0  0  0
   -9.6410   17.9120    7.1120 N   0  0  0  0  0  0  0  0  0  0  0  0
   -7.5820   14.9520    6.2610 O   0  0  0  0  0  0  0  0  0  0  0  0
  1  2  1  0
  2  3  1  0
  1  4  1  0
  4  5  1  0
  5  6  2  0
  5  7  1  0
  3  8  1  0
  7  9  1  0
  8 10  1  0
  9 11  2  0
  9 12  1  0
 10 13  2  0
 10 14  1  0
 11 15  1  0
 12 16  2  0
 13 17  1  0
 14 18  2  0
 16 19  1  0
 18 20  1  0
 15 21  2  0
 16 21  1  0
 17 22  2  0
 18 22  1  0
 20 23  3  0
 22 24  1  0
M  END
>  <comRMSD>  (180) 
0.390737

>  <∆∆G>  (180) 
-8.487304

>  <N_constrained_atoms>  (180) 
23.0

>  <LE>  (180) 
-0.353638

>  <ref_pdb>  (180) 
x0104_0

>  <ref_mols>  (180) 
x0290_0_A_α,x0852_0_B_α

>  <%Rank>  (180) 
3.07138

>  <generation_date>  (180) 
nan

>  <method>  (180) 
nan

>  <submitter_email>  (180) 
nan

>  <original SMILES>  (180) 
Cc1ccnc(NC(=O)CNCCOc2ccc(O)c(C#N)c2)c1

>  <ref_url>  (180) 
nan

>  <submitter_name>  (180) 
nan

>  <submitter_institution>  (180) 
nan

$$$$
x0849_0_A_α-x1012_0_A_α
     RDKit          3D

 24 26  0  0  0  0  0  0  0  0999 V2000
   -3.8830   15.1940   -2.7450 Br  0  0  0  0  0  0  0  0  0  0  0  0
   -3.7190   15.1660   -0.8600 C   0  0  0  0  0  0  0  0  0  0  0  0
   -2.5040   14.8850   -0.2340 C   0  0  0  0  0  0  0  0  0  0  0  0
   -4.8470   15.4280   -0.1120 C   0  0  0  0  0  0  0  0  0  0  0  0
   -2.4690   14.8730    1.1520 C   0  0  0  0  0  0  0  0  0  0  0  0
   -4.6920   15.3870    1.2470 C   0  0  0  0  0  0  0  0  0  0  0  0
   -1.3260   14.6160   -0.9140 C   0  0  0  0  0  0  0  0  0  0  0  0
   -3.5400   15.1200    1.8560 N   0  0  0  0  0  0  0  0  0  0  0  0
   -1.3670   14.6120    1.8210 N   0  0  0  0  0  0  0  0  0  0  0  0
   -0.1740   14.3430   -0.2360 C   0  0  0  0  0  0  0  0  0  0  0  0
    1.0110   14.0460   -1.0670 C   0  0  0  0  0  0  0  0  0  0  0  0
   -0.2500   14.3550    1.1470 C   0  0  0  0  0  0  0  0  0  0  0  0
    0.8710   12.6700   -1.5000 N   0  0  0  0  0  0  0  0  0  0  0  0
    0.5200   12.4100   -2.6870 C   0  0  0  0  0  0  0  0  0  0  0  0
    0.4080   11.1040   -2.9600 O   0  0  0  0  0  0  0  0  0  0  0  0
    0.1980   13.3390   -3.8390 C   0  0  0  0  0  0  0  0  0  0  0  0
   -1.3080   13.6450   -3.8360 C   0  0  0  0  0  0  0  0  0  0  0  0
    1.0540   14.6260   -3.7960 C   0  0  0  0  0  0  0  0  0  0  0  0
   -1.6730   14.6980   -4.8730 C   0  0  0  0  0  0  0  0  0  0  0  0
    0.6630   15.5980   -4.8990 C   0  0  0  0  0  0  0  0  0  0  0  0
   -0.7770   15.8630   -4.8820 N   0  0  0  0  0  0  0  0  0  0  0  0
   -1.2230   17.1680   -4.8090 C   0  0  0  0  0  0  0  0  0  0  0  0
   -0.2720   18.1330   -4.8370 N   0  0  0  0  0  0  0  0  0  0  0  0
   -2.3920   17.5090   -4.7250 O   0  0  0  0  0  0  0  0  0  0  0  0
  1  2  1  0
  2  3  2  0
  2  4  1  0
  3  5  1  0
  4  6  2  0
  3  7  1  0
  5  8  2  0
  6  8  1  0
  5  9  1  0
  7 10  2  0
 10 11  1  0
  9 12  2  0
 10 12  1  0
 11 13  1  0
 13 14  2  3
 14 15  1  0
 14 16  1  0
 16 17  1  0
 16 18  1  0
 17 19  1  0
 18 20  1  0
 19 21  1  0
 20 21  1  0
 21 22  1  0
 22 23  1  0
 22 24  2  0
M  END
>  <comRMSD>  (181) 
0.370259

>  <∆∆G>  (181) 
-7.435023

>  <N_constrained_atoms>  (181) 
23.0

>  <LE>  (181) 
-0.309793

>  <ref_pdb>  (181) 
x0104_0

>  <ref_mols>  (181) 
x0849_0_A_α,x1012_0_A_α

>  <%Rank>  (181) 
3.088538

>  <generation_date>  (181) 
nan

>  <method>  (181) 
nan

>  <submitter_email>  (181) 
nan

>  <original SMILES>  (181) 
NC(=O)N1CCC(C(O)=NCc2cnc3nccc(Br)c3c2)CC1

>  <ref_url>  (181) 
nan

>  <submitter_name>  (181) 
nan

>  <submitter_institution>  (181) 
nan

$$$$
x0837_0_A_α-x0628_0_A_α
     RDKit          3D

 21 22  0  0  0  0  0  0  0  0999 V2000
   -7.5500   14.6850    0.1780 O   0  0  0  0  0  0  0  0  0  0  0  0
   -6.2970   14.7230    0.1310 C   0  0  0  0  0  0  0  0  0  0  0  0
   -5.5790   14.7570    1.3540 N   0  0  0  0  0  0  0  0  0  0  0  0
   -5.6450   14.7350   -1.1970 C   0  0  0  0  0  0  0  0  0  0  0  0
   -4.1780   14.8480    1.2910 C   0  0  0  0  0  0  0  0  0  0  0  0
   -4.2760   15.2700   -1.1380 C   0  0  2  0  0  0  0  0  0  0  0  0
   -3.0270   14.8000   -2.8010 I   0  0  0  0  0  0  0  0  0  0  0  0
   -3.5880   15.0800    0.1530 C   0  0  0  0  0  0  0  0  0  0  0  0
   -3.3000   12.9430   -3.7940 C   0  0  0  0  0  0  0  0  0  0  0  0
   -2.1300   12.0380   -3.6280 C   0  0  0  0  0  0  0  0  0  0  0  0
   -1.4410   11.5060   -4.8140 C   0  0  0  0  0  0  0  0  0  0  0  0
   -1.7800   10.3840   -5.4600 N   0  0  0  0  0  0  0  0  0  0  0  0
   -0.3760   12.0230   -5.4440 N   0  0  0  0  0  0  0  0  0  0  0  0
    0.4080   13.1970   -5.2050 C   0  0  0  0  0  0  0  0  0  0  0  0
   -0.9430   10.1960   -6.4720 C   0  0  0  0  0  0  0  0  0  0  0  0
   -0.0920   11.2020   -6.4560 N   0  0  0  0  0  0  0  0  0  0  0  0
   -0.9850    9.0390   -7.4330 C   0  0  0  0  0  0  0  0  0  0  0  0
    1.6040   12.9100   -4.3190 C   0  0  0  0  0  0  0  0  0  0  0  0
    1.1900   12.3720   -2.9790 C   0  0  0  0  0  0  0  0  0  0  0  0
    0.6700   11.2330   -2.9340 O   0  0  0  0  0  0  0  0  0  0  0  0
    1.3710   13.1030   -1.8160 O   0  0  0  0  0  0  0  0  0  0  0  0
  1  2  2  0
  2  3  1  0
  2  4  1  0
  3  5  1  0
  4  6  1  0
  6  7  1  6
  5  8  2  0
  6  8  1  0
  7  9  1  0
  9 10  1  0
 10 11  1  0
 11 12  2  0
 11 13  1  0
 13 14  1  0
 12 15  1  0
 13 16  1  0
 15 16  2  0
 15 17  1  0
 14 18  1  0
 18 19  1  0
 19 20  2  0
 19 21  1  0
M  END
>  <comRMSD>  (182) 
0.264513

>  <∆∆G>  (182) 
-4.93816

>  <N_constrained_atoms>  (182) 
20.0

>  <LE>  (182) 
-0.23515

>  <ref_pdb>  (182) 
x0104_0

>  <ref_mols>  (182) 
x0837_0_A_α,x0628_0_A_α

>  <%Rank>  (182) 
3.105697

>  <generation_date>  (182) 
nan

>  <method>  (182) 
nan

>  <submitter_email>  (182) 
nan

>  <original SMILES>  (182) 
Cc1nc(CCIC2C=CNC(=O)C2)n(CCC(=O)O)n1

>  <ref_url>  (182) 
nan

>  <submitter_name>  (182) 
nan

>  <submitter_institution>  (182) 
nan

$$$$
x0796_0_B_α-x0091_0_B_α
     RDKit          3D

 33 37  0  0  0  0  0  0  0  0999 V2000
   10.7430   11.4300   12.5290 O   0  0  0  0  0  0  0  0  0  0  0  0
   11.9820   11.4720   12.5200 C   0  0  0  0  0  0  0  0  0  0  0  0
   12.7010   10.7750   11.5590 N   0  0  0  0  0  0  0  0  0  0  0  0
   12.8750   12.2360   13.5720 C   0  0  1  0  0  0  0  0  0  0  0  0
   14.0960   10.6480   11.6300 C   0  0  0  0  0  0  0  0  0  0  0  0
   14.0880   12.7790   12.8080 C   0  0  0  0  0  0  0  0  0  0  0  0
   12.0980   13.2510   14.3460 N   0  0  0  0  0  0  0  0  0  0  0  0
   13.3200   11.2150   14.6240 C   0  0  0  0  0  0  0  0  0  0  0  0
   12.7660   14.5610   14.4620 C   0  0  0  0  0  0  0  0  0  0  0  0
   14.8380   11.6360   12.2510 C   0  0  0  0  0  0  0  0  0  0  0  0
   12.1810   11.2120   15.6150 C   0  0  0  0  0  0  0  0  0  0  0  0
   11.8060   12.6700   15.6870 C   0  0  0  0  0  0  0  0  0  0  0  0
   14.7260    9.5370   11.0890 C   0  0  0  0  0  0  0  0  0  0  0  0
   13.9960   14.4840   15.4190 C   0  0  0  0  0  0  0  0  0  0  0  0
   16.2250   11.5390   12.3460 C   0  0  0  0  0  0  0  0  0  0  0  0
   16.1180    9.4290   11.1830 C   0  0  0  0  0  0  0  0  0  0  0  0
   15.3470   15.0140   14.8460 C   0  0  0  0  0  0  0  0  0  0  0  0
   16.8620   10.4270   11.8080 C   0  0  0  0  0  0  0  0  0  0  0  0
   15.7230   16.4560   15.2430 C   0  0  0  0  0  0  0  0  0  0  0  0
   14.5990   17.3450   14.9110 C   0  0  0  0  0  0  0  0  0  0  0  0
   13.4950   17.1710   15.6750 O   0  0  0  0  0  0  0  0  0  0  0  0
   14.3660   18.3320   13.9880 C   0  0  0  0  0  0  0  0  0  0  0  0
   12.5030   18.0380   15.2610 N   0  0  0  0  0  0  0  0  0  0  0  0
   13.0280   18.7320   14.2410 C   0  0  0  0  0  0  0  0  0  0  0  0
   12.2120   19.7660   13.5300 C   0  0  0  0  0  0  0  0  0  0  0  0
   12.7740   21.1020   13.7180 N   0  0  0  0  0  0  0  0  0  0  0  0
   12.1620   21.9210   14.7510 C   0  0  0  0  0  0  0  0  0  0  0  0
   13.6910   21.5460   12.7810 C   0  0  0  0  0  0  0  0  0  0  0  0
   14.0400   20.8560   11.8250 O   0  0  0  0  0  0  0  0  0  0  0  0
   14.1750   22.8170   12.9990 N   0  0  0  0  0  0  0  0  0  0  0  0
   15.1710   23.4170   12.1620 C   0  0  0  0  0  0  0  0  0  0  0  0
   16.6320   23.1700   12.4250 C   0  0  0  0  0  0  0  0  0  0  0  0
   16.0400   24.5150   12.7150 C   0  0  0  0  0  0  0  0  0  0  0  0
  1  2  2  0
  2  3  1  0
  4  2  1  0
  3  5  1  0
  4  6  1  6
  4  7  1  0
  4  8  1  0
  7  9  1  0
  5 10  2  0
  6 10  1  0
  8 11  1  0
  7 12  1  0
 11 12  1  0
  5 13  1  0
  9 14  1  0
 10 15  1  0
 13 16  2  0
 14 17  1  0
 15 18  2  0
 16 18  1  0
 17 19  1  0
 19 20  1  0
 20 21  1  0
 20 22  2  0
 21 23  1  0
 22 24  1  0
 23 24  2  0
 24 25  1  0
 25 26  1  0
 26 27  1  0
 26 28  1  0
 28 29  2  0
 28 30  1  0
 30 31  1  0
 31 32  1  0
 31 33  1  0
 32 33  1  0
M  END
>  <comRMSD>  (183) 
0.331618

>  <∆∆G>  (183) 
-10.50744

>  <N_constrained_atoms>  (183) 
30.0

>  <LE>  (183) 
-0.318407

>  <ref_pdb>  (183) 
x0104_0

>  <ref_mols>  (183) 
x0796_0_B_α,x0091_0_B_α

>  <%Rank>  (183) 
3.122855

>  <generation_date>  (183) 
nan

>  <method>  (183) 
nan

>  <submitter_email>  (183) 
nan

>  <original SMILES>  (183) 
CN(Cc1cc(CCCCN2CCCC23Cc2ccccc2NC3=O)on1)C(=O)NC1CC1

>  <ref_url>  (183) 
nan

>  <submitter_name>  (183) 
nan

>  <submitter_institution>  (183) 
nan

$$$$
x0900_1_A_α-x0676_0_B_α
     RDKit          3D

 20 22  0  0  0  0  0  0  0  0999 V2000
   -1.0450   10.1170   -9.9080 O   0  0  0  0  0  0  0  0  0  0  0  0
   -0.9770    9.4880   -8.8690 C   0  0  0  0  0  0  0  0  0  0  0  0
    0.1390    8.8370   -8.3710 N   0  0  0  0  0  0  0  0  0  0  0  0
   -2.1160    9.2870   -7.8900 C   0  0  0  0  0  0  0  0  0  0  0  0
    0.8810    7.8810   -9.1740 C   0  0  0  0  0  0  0  0  0  0  0  0
   -1.5370    8.3070   -6.8770 C   0  0  0  0  0  0  0  0  0  0  0  0
   -0.0640    8.6140   -6.9600 C   0  0  0  0  0  0  0  0  0  0  0  0
    1.5710    8.4600  -10.3380 N   0  0  0  0  0  0  0  0  0  0  0  0
    2.7200    7.9310  -10.6350 C   0  0  0  0  0  0  0  0  0  0  0  0
    3.3270    6.8040   -9.8330 C   0  0  0  0  0  0  0  0  0  0  0  0
    3.6850    8.1600  -11.6450 N   0  0  0  0  0  0  0  0  0  0  0  0
    4.9500    7.7620  -11.2070 N   0  0  0  0  0  0  0  0  0  0  0  0
    4.7640    7.0270  -10.1650 C   0  0  0  0  0  0  0  0  0  0  0  0
    3.7360    9.2030  -12.6240 C   0  0  0  0  0  0  0  0  0  0  0  0
    5.8680    6.4520   -9.3530 C   0  0  0  0  0  0  0  0  0  0  0  0
    2.8210   10.2720  -12.6980 C   0  0  0  0  0  0  0  0  0  0  0  0
    4.7640    9.2010  -13.5940 C   0  0  0  0  0  0  0  0  0  0  0  0
    2.9320   11.2740  -13.6740 C   0  0  0  0  0  0  0  0  0  0  0  0
    4.8760   10.1950  -14.5700 C   0  0  0  0  0  0  0  0  0  0  0  0
    3.9590   11.2380  -14.6100 C   0  0  0  0  0  0  0  0  0  0  0  0
  1  2  2  0
  2  3  1  0
  2  4  1  0
  3  5  1  0
  4  6  1  0
  3  7  1  0
  6  7  1  0
  5  8  1  0
  8  9  2  3
  9 10  1  0
  9 11  1  0
 11 12  1  0
 10 13  1  0
 12 13  2  0
 11 14  1  0
 13 15  1  0
 14 16  2  0
 14 17  1  0
 16 18  1  0
 17 19  2  0
 18 20  2  0
 19 20  1  0
M  END
>  <comRMSD>  (184) 
0.243234

>  <∆∆G>  (184) 
-4.863947

>  <N_constrained_atoms>  (184) 
19.0

>  <LE>  (184) 
-0.243197

>  <ref_pdb>  (184) 
x0104_0

>  <ref_mols>  (184) 
x0900_1_A_α,x0676_0_B_α

>  <%Rank>  (184) 
3.140014

>  <generation_date>  (184) 
nan

>  <method>  (184) 
nan

>  <submitter_email>  (184) 
nan

>  <original SMILES>  (184) 
CC1=NN(c2ccccc2)C(=NCN2CCCC2=O)C1

>  <ref_url>  (184) 
nan

>  <submitter_name>  (184) 
nan

>  <submitter_institution>  (184) 
nan

$$$$
4GVW_0_A_α-6woj_D_0_D_β
     RDKit          3D

 16 16  0  0  0  0  0  0  0  0999 V2000
   -0.1210   19.1930   -6.2130 O   0  0  0  0  0  0  0  0  0  0  0  0
   -0.1830   19.9470   -7.6240 S   0  0  0  0  0  0  0  0  0  0  0  0
    0.8630   21.1680   -7.7080 O   0  0  0  0  0  0  0  0  0  0  0  0
   -1.3450   18.3210   -5.6940 P   0  0  0  0  0  0  0  0  0  0  0  0
    0.1570   18.8730   -8.7610 O   0  0  0  0  0  0  0  0  0  0  0  0
   -1.7880   20.5830   -8.0710 C   0  0  0  0  0  0  0  0  0  0  0  0
   -0.7060   16.8700   -5.5300 O   0  0  0  0  0  0  0  0  0  0  0  0
   -1.9640   18.8900   -4.4820 O   0  0  0  0  0  0  0  0  0  0  0  0
   -2.3820   18.0700   -6.8810 O   0  0  0  0  0  0  0  0  0  0  0  0
   -2.0790   22.0130   -7.6830 C   0  0  0  0  0  0  0  0  0  0  0  0
   -3.5340   22.2160   -7.5300 N   0  0  0  0  0  0  0  0  0  0  0  0
   -3.7910   23.2070   -6.4750 C   0  0  0  0  0  0  0  0  0  0  0  0
   -4.1910   22.6340   -8.7770 C   0  0  0  0  0  0  0  0  0  0  0  0
   -5.2340   23.6060   -6.3660 C   0  0  0  0  0  0  0  0  0  0  0  0
   -5.6900   22.9020   -8.5820 C   0  0  0  0  0  0  0  0  0  0  0  0
   -5.9150   23.8990   -7.5770 O   0  0  0  0  0  0  0  0  0  0  0  0
  2  1  1  0
  2  3  1  0
  1  4  1  0
  2  5  1  0
  2  6  1  0
  4  7  1  0
  4  8  2  0
  4  9  1  0
  6 10  1  0
 10 11  1  0
 11 12  1  0
 11 13  1  0
 12 14  1  0
 13 15  1  0
 14 16  1  0
 15 16  1  0
M  END
>  <comRMSD>  (185) 
0.524343

>  <∆∆G>  (185) 
-10.708979

>  <N_constrained_atoms>  (185) 
16.0

>  <LE>  (185) 
-0.669311

>  <ref_pdb>  (185) 
x0104_0

>  <ref_mols>  (185) 


>  <%Rank>  (185) 
3.157172

>  <generation_date>  (185) 
nan

>  <method>  (185) 
nan

>  <submitter_email>  (185) 
nan

>  <original SMILES>  (185) 
O=P(O)(O)OS(O)(O)CCN1CCOCC1

>  <ref_url>  (185) 
nan

>  <submitter_name>  (185) 
nan

>  <submitter_institution>  (185) 
nan

$$$$
6WOJ_0_D_α-6woj_D_0_D_β
     RDKit          3D

 17 17  0  0  0  0  0  0  0  0999 V2000
   -1.5850   21.5240   -7.2100 C   0  0  0  0  0  0  0  0  0  0  0  0
   -0.3590   20.2660   -7.6340 P   0  0  2  0  0  0  0  0  0  0  0  0
   -0.2070   19.2200   -6.4440 O   0  0  0  0  0  0  0  0  0  0  0  0
   -2.8140   21.8920   -8.0460 C   0  0  1  0  0  0  0  0  0  0  0  0
    0.9690   20.8760   -7.8840 O   0  0  0  0  0  0  0  0  0  0  0  0
   -0.8570   19.2260   -8.7510 O   0  0  0  0  0  0  0  0  0  0  0  0
   -3.9360   21.1730   -7.5410 O   0  0  0  0  0  0  0  0  0  0  0  0
   -3.2990   23.3620   -7.9050 C   0  0  1  0  0  0  0  0  0  0  0  0
   -4.1510   23.7860   -8.9810 O   0  0  0  0  0  0  0  0  0  0  0  0
   -1.3500   18.3720   -5.7420 P   0  0  0  0  0  0  0  0  0  0  0  0
   -4.4070   21.8640   -6.3810 C   0  0  1  0  0  0  0  0  0  0  0  0
   -4.0750   23.3530   -6.5690 C   0  0  2  0  0  0  0  0  0  0  0  0
   -5.7950   21.6320   -6.1890 O   0  0  0  0  0  0  0  0  0  0  0  0
   -5.3000   24.1160   -6.6340 O   0  0  0  0  0  0  0  0  0  0  0  0
   -0.7060   16.9320   -5.5270 O   0  0  0  0  0  0  0  0  0  0  0  0
   -1.8930   18.9690   -4.5100 O   0  0  0  0  0  0  0  0  0  0  0  0
   -2.4530   18.0810   -6.8600 O   0  0  0  0  0  0  0  0  0  0  0  0
  1  2  1  0
  2  3  1  0
  4  1  1  1
  2  5  2  0
  2  6  1  6
  4  7  1  0
  4  8  1  0
  8  9  1  6
  3 10  1  0
  7 11  1  0
  8 12  1  0
 11 12  1  0
 11 13  1  6
 12 14  1  6
 10 15  1  0
 10 16  2  0
 10 17  1  0
M  END
>  <comRMSD>  (186) 
0.649283

>  <∆∆G>  (186) 
-14.819121

>  <N_constrained_atoms>  (186) 
17.0

>  <LE>  (186) 
-0.871713

>  <ref_pdb>  (186) 
x0104_0

>  <ref_mols>  (186) 


>  <%Rank>  (186) 
3.174331

>  <generation_date>  (186) 
nan

>  <method>  (186) 
nan

>  <submitter_email>  (186) 
nan

>  <original SMILES>  (186) 
O=P(O)(O)OP(=O)(O)CC1OC(O)C(O)C1O

>  <ref_url>  (186) 
nan

>  <submitter_name>  (186) 
nan

>  <submitter_institution>  (186) 
nan

$$$$
5cb5_F_1_F_β-x0290_0_A_α
     RDKit          3D

 24 24  0  0  0  0  0  0  0  0999 V2000
   -1.6520   20.3830   -8.2470 O   0  0  0  0  0  0  0  0  0  0  0  0
   -0.2890   19.6510   -7.8790 P   0  0  0  0  0  0  0  0  0  0  0  0
   -0.4120   19.0410   -6.4410 O   0  0  0  0  0  0  0  0  0  0  0  0
    0.1700   18.6690   -8.8840 O   0  0  0  0  0  0  0  0  0  0  0  0
    0.7180   20.8760   -7.7710 O   0  0  0  0  0  0  0  0  0  0  0  0
   -1.6470   18.1890   -5.9650 P   0  0  0  0  0  0  0  0  0  0  0  0
   -1.0550   16.8530   -5.3160 O   0  0  0  0  0  0  0  0  0  0  0  0
   -2.7000   17.9610   -6.9830 O   0  0  0  0  0  0  0  0  0  0  0  0
   -2.1460   19.1030   -4.7690 O   0  0  0  0  0  0  0  0  0  0  0  0
   -0.6290   16.8600   -3.9680 C   0  0  0  0  0  0  0  0  0  0  0  0
   -1.6280   16.0110   -3.1700 C   0  0  0  0  0  0  0  0  0  0  0  0
   -0.9680   14.8430   -2.4380 C   0  0  0  0  0  0  0  0  0  0  0  0
   -1.2680   14.7650   -0.9580 C   0  0  0  0  0  0  0  0  0  0  0  0
   -0.2310   14.6000   -0.0410 C   0  0  0  0  0  0  0  0  0  0  0  0
   -2.5800   14.8520   -0.4750 C   0  0  0  0  0  0  0  0  0  0  0  0
   -0.5470   14.5290    1.3010 C   0  0  0  0  0  0  0  0  0  0  0  0
   -2.8100   14.7700    0.8930 C   0  0  0  0  0  0  0  0  0  0  0  0
   -4.0890   14.8380    1.4600 N   0  0  0  0  0  0  0  0  0  0  0  0
   -1.8050   14.6100    1.7870 N   0  0  0  0  0  0  0  0  0  0  0  0
   -5.2660   14.4890    0.8250 C   0  0  0  0  0  0  0  0  0  0  0  0
   -5.4520   14.4850   -0.3900 O   0  0  0  0  0  0  0  0  0  0  0  0
   -6.3960   14.0670    1.7800 C   0  0  0  0  0  0  0  0  0  0  0  0
   -7.6360   13.7360    1.0450 N   0  0  0  0  0  0  0  0  0  0  0  0
   -8.4770   14.8960    0.7730 C   0  0  0  0  0  0  0  0  0  0  0  0
  1  2  1  0
  2  3  1  0
  2  4  2  0
  2  5  1  0
  3  6  1  0
  6  7  1  0
  6  8  2  0
  6  9  1  0
  7 10  1  0
 10 11  1  0
 11 12  1  0
 12 13  1  0
 13 14  2  0
 13 15  1  0
 14 16  1  0
 15 17  2  0
 17 18  1  0
 16 19  2  0
 17 19  1  0
 18 20  1  0
 20 21  2  0
 20 22  1  0
 22 23  1  0
 23 24  1  0
M  END
>  <comRMSD>  (187) 
0.397705

>  <∆∆G>  (187) 
-15.082896

>  <N_constrained_atoms>  (187) 
22.0

>  <LE>  (187) 
-0.628454

>  <ref_pdb>  (187) 
x0104_0

>  <ref_mols>  (187) 
x0290_0_A_α

>  <%Rank>  (187) 
3.191489

>  <generation_date>  (187) 
nan

>  <method>  (187) 
nan

>  <submitter_email>  (187) 
nan

>  <original SMILES>  (187) 
CNCC(=O)Nc1cc(CCCOP(=O)(O)OP(=O)(O)O)ccn1

>  <ref_url>  (187) 
nan

>  <submitter_name>  (187) 
nan

>  <submitter_institution>  (187) 
nan

$$$$
x0685_0_A_α-x1012_0_A_α
     RDKit          3D

 24 25  0  0  0  0  0  0  0  0999 V2000
   -5.9420   14.5750    2.6050 N   0  0  0  0  0  0  0  0  0  0  0  0
   -7.3560   14.8080    2.8840 C   0  0  0  0  0  0  0  0  0  0  0  0
   -8.0530   13.4950    3.1930 C   0  0  0  0  0  0  0  0  0  0  0  0
   -5.4070   14.7700    1.3420 C   0  0  0  0  0  0  0  0  0  0  0  0
   -4.0180   14.9030    1.2440 C   0  0  0  0  0  0  0  0  0  0  0  0
   -6.2110   14.8210    0.2740 N   0  0  0  0  0  0  0  0  0  0  0  0
   -3.4400   15.0950   -0.0050 C   0  0  0  0  0  0  0  0  0  0  0  0
   -5.6330   15.0100   -0.9220 C   0  0  0  0  0  0  0  0  0  0  0  0
   -4.2720   15.1510   -1.1160 C   0  0  0  0  0  0  0  0  0  0  0  0
   -3.7900   15.3480   -2.4300 C   0  0  0  0  0  0  0  0  0  0  0  0
   -3.4730   15.5750   -3.5580 C   0  0  0  0  0  0  0  0  0  0  0  0
   -3.1600   15.9300   -4.9440 C   0  0  0  0  0  0  0  0  0  0  0  0
   -2.4190   17.1810   -4.8490 N   0  0  0  0  0  0  0  0  0  0  0  0
   -1.1630   17.0140   -4.8460 C   0  0  0  0  0  0  0  0  0  0  0  0
   -0.3770   18.1140   -4.7810 N   0  0  0  0  0  0  0  0  0  0  0  0
   -0.4910   15.8210   -4.8980 N   0  0  0  0  0  0  0  0  0  0  0  0
   -1.2070   14.5530   -5.0920 C   0  0  0  0  0  0  0  0  0  0  0  0
    0.9070   15.7010   -4.4980 C   0  0  0  0  0  0  0  0  0  0  0  0
   -1.1640   13.7220   -3.8230 C   0  0  0  0  0  0  0  0  0  0  0  0
    1.0850   14.6960   -3.3410 C   0  0  0  0  0  0  0  0  0  0  0  0
    0.2870   13.3820   -3.5230 C   0  0  0  0  0  0  0  0  0  0  0  0
    0.3730   12.4410   -2.3380 C   0  0  0  0  0  0  0  0  0  0  0  0
    0.1300   11.1570   -2.6630 O   0  0  0  0  0  0  0  0  0  0  0  0
    0.6130   12.7370   -1.1820 O   0  0  0  0  0  0  0  0  0  0  0  0
  1  2  1  0
  2  3  1  0
  1  4  1  0
  4  5  2  0
  4  6  1  0
  5  7  1  0
  6  8  2  0
  7  9  2  0
  8  9  1  0
  9 10  1  0
 10 11  3  0
 11 12  1  0
 12 13  1  0
 13 14  2  3
 14 15  1  0
 14 16  1  0
 16 17  1  0
 16 18  1  0
 17 19  1  0
 18 20  1  0
 19 21  1  0
 20 21  1  0
 21 22  1  0
 22 23  1  0
 22 24  2  0
M  END
>  <comRMSD>  (188) 
0.380498

>  <∆∆G>  (188) 
-7.763252

>  <N_constrained_atoms>  (188) 
23.0

>  <LE>  (188) 
-0.323469

>  <ref_pdb>  (188) 
x0104_0

>  <ref_mols>  (188) 
x0685_0_A_α,x1012_0_A_α

>  <%Rank>  (188) 
3.208648

>  <generation_date>  (188) 
nan

>  <method>  (188) 
nan

>  <submitter_email>  (188) 
nan

>  <original SMILES>  (188) 
CCNc1ccc(C#CCN=C(N)N2CCC(C(=O)O)CC2)cn1

>  <ref_url>  (188) 
nan

>  <submitter_name>  (188) 
nan

>  <submitter_institution>  (188) 
nan

$$$$
x0805_0_A_α-x0864_0_A_α
     RDKit          3D

 21 22  0  0  0  0  0  0  0  0999 V2000
   -2.9940   15.3540   -0.1060 O   0  0  0  0  0  0  0  0  0  0  0  0
   -4.2840   15.5810    0.4450 C   0  0  0  0  0  0  0  0  0  0  0  0
   -2.8770   14.6750   -1.2910 C   0  0  0  0  0  0  0  0  0  0  0  0
   -3.9580   13.8650   -1.6300 C   0  0  0  0  0  0  0  0  0  0  0  0
   -1.7780   14.7400   -2.1530 C   0  0  0  0  0  0  0  0  0  0  0  0
   -1.7400   14.0110   -3.3510 C   0  0  0  0  0  0  0  0  0  0  0  0
   -3.9390   13.1280   -2.8150 C   0  0  0  0  0  0  0  0  0  0  0  0
   -0.5280   14.1160   -4.2770 C   0  0  0  0  0  0  0  0  0  0  0  0
   -2.8380   13.2020   -3.6750 C   0  0  0  0  0  0  0  0  0  0  0  0
    0.3310   12.8290   -4.4160 C   0  0  1  0  0  0  0  0  0  0  0  0
    0.7350   12.3320   -3.0220 C   0  0  0  0  0  0  0  0  0  0  0  0
   -0.2430   11.7970   -5.3170 N   0  0  0  0  0  0  0  0  0  0  0  0
    0.4720   11.0500   -2.7120 O   0  0  0  0  0  0  0  0  0  0  0  0
    1.2780   13.0720   -2.2110 O   0  0  0  0  0  0  0  0  0  0  0  0
   -1.3200   11.0600   -4.8450 C   0  0  0  0  0  0  0  0  0  0  0  0
    0.4650   11.3740   -6.4310 C   0  0  0  0  0  0  0  0  0  0  0  0
    1.5410   11.8640   -6.7590 O   0  0  0  0  0  0  0  0  0  0  0  0
   -1.8020   10.0160   -5.5230 C   0  0  0  0  0  0  0  0  0  0  0  0
   -0.1110   10.2670   -7.2250 C   0  0  0  0  0  0  0  0  0  0  0  0
   -1.1970    9.6280   -6.7720 C   0  0  0  0  0  0  0  0  0  0  0  0
   -1.9830    8.2220   -7.7110 Br  0  0  0  0  0  0  0  0  0  0  0  0
  1  2  1  0
  1  3  1  0
  3  4  2  0
  3  5  1  0
  5  6  2  0
  4  7  1  0
  6  8  1  0
  6  9  1  0
  7  9  2  0
 10  8  1  1
 10 11  1  0
 10 12  1  0
 11 13  1  0
 11 14  2  0
 12 15  1  0
 12 16  1  0
 16 17  2  0
 15 18  2  0
 16 19  1  0
 18 20  1  0
 19 20  2  0
 20 21  1  0
M  END
>  <comRMSD>  (189) 
0.217064

>  <∆∆G>  (189) 
-2.796739

>  <N_constrained_atoms>  (189) 
20.0

>  <LE>  (189) 
-0.133178

>  <ref_pdb>  (189) 
x0104_0

>  <ref_mols>  (189) 
x0805_0_A_α,x0864_0_A_α

>  <%Rank>  (189) 
3.225806

>  <generation_date>  (189) 
nan

>  <method>  (189) 
nan

>  <submitter_email>  (189) 
nan

>  <original SMILES>  (189) 
COc1cccc(CC(C(=O)O)n2ccc(Br)cc2=O)c1

>  <ref_url>  (189) 
nan

>  <submitter_name>  (189) 
nan

>  <submitter_institution>  (189) 
nan

$$$$
x0471_0_A_α-x0628_0_A_α
     RDKit          3D

 30 32  0  0  0  0  0  0  0  0999 V2000
   -8.8450   14.1160    2.6650 N   0  0  0  0  0  0  0  0  0  0  0  0
   -8.9730   15.0190    3.7040 C   0  0  0  0  0  0  0  0  0  0  0  0
   -9.3060   16.1900    3.5160 O   0  0  0  0  0  0  0  0  0  0  0  0
   -8.8440   14.5730    1.2840 C   0  0  0  0  0  0  0  0  0  0  0  0
   -8.6800   14.4330    5.0880 C   0  0  0  0  0  0  0  0  0  0  0  0
   -7.4370   14.6590    0.8010 C   0  0  0  0  0  0  0  0  0  0  0  0
   -9.9020   13.6710    5.6040 C   0  0  0  0  0  0  0  0  0  0  0  0
   -8.2780   15.5310    6.0720 C   0  0  0  0  0  0  0  0  0  0  0  0
   -7.1130   14.6210   -0.5380 N   0  0  0  0  0  0  0  0  0  0  0  0
   -6.3530   14.7810    1.5360 N   0  0  0  0  0  0  0  0  0  0  0  0
   -5.2990   14.8170    0.6590 C   0  0  0  0  0  0  0  0  0  0  0  0
   -5.7460   14.7150   -0.6500 C   0  0  0  0  0  0  0  0  0  0  0  0
   -4.8870   14.7140   -1.7520 C   0  0  0  0  0  0  0  0  0  0  0  0
   -3.9250   14.9340    0.9120 C   0  0  0  0  0  0  0  0  0  0  0  0
   -3.5030   14.8110   -1.4960 C   0  0  0  0  0  0  0  0  0  0  0  0
   -3.0380   14.9270   -0.1720 C   0  0  0  0  0  0  0  0  0  0  0  0
   -2.5210   14.7750   -2.6620 C   0  0  0  0  0  0  0  0  0  0  0  0
   -1.9780   13.3630   -3.0140 C   0  0  0  0  0  0  0  0  0  0  0  0
   -2.6080   12.6680   -4.2380 C   0  0  0  0  0  0  0  0  0  0  0  0
   -1.7010   11.8240   -5.1010 C   0  0  0  0  0  0  0  0  0  0  0  0
   -2.0120   10.6500   -5.6210 N   0  0  0  0  0  0  0  0  0  0  0  0
   -0.4120   12.1350   -5.4950 N   0  0  0  0  0  0  0  0  0  0  0  0
    0.4100   13.2920   -5.2100 C   0  0  0  0  0  0  0  0  0  0  0  0
   -0.8960   10.2820   -6.3230 C   0  0  0  0  0  0  0  0  0  0  0  0
    0.1030   11.1630   -6.2730 N   0  0  0  0  0  0  0  0  0  0  0  0
   -0.7990    9.0170   -7.0760 C   0  0  0  0  0  0  0  0  0  0  0  0
    1.5670   12.9380   -4.2870 C   0  0  0  0  0  0  0  0  0  0  0  0
    1.0980   12.2840   -3.0180 C   0  0  0  0  0  0  0  0  0  0  0  0
    0.6680   11.1490   -2.8910 O   0  0  0  0  0  0  0  0  0  0  0  0
    1.1930   13.0920   -1.9410 O   0  0  0  0  0  0  0  0  0  0  0  0
  1  2  1  0
  2  3  2  0
  1  4  1  0
  2  5  1  0
  4  6  1  0
  5  7  1  0
  5  8  1  0
  6  9  1  0
  6 10  2  0
 10 11  1  0
  9 12  1  0
 11 12  2  0
 12 13  1  0
 11 14  1  0
 13 15  2  0
 14 16  2  0
 15 16  1  0
 15 17  1  0
 17 18  1  0
 18 19  1  0
 19 20  1  0
 20 21  2  0
 20 22  1  0
 22 23  1  0
 21 24  1  0
 22 25  1  0
 24 25  2  0
 24 26  1  0
 23 27  1  0
 27 28  1  0
 28 29  2  0
 28 30  1  0
M  END
>  <comRMSD>  (190) 
0.304156

>  <∆∆G>  (190) 
-4.891455

>  <N_constrained_atoms>  (190) 
28.0

>  <LE>  (190) 
-0.163049

>  <ref_pdb>  (190) 
x0104_0

>  <ref_mols>  (190) 
x0471_0_A_α,x0628_0_A_α

>  <%Rank>  (190) 
3.242965

>  <generation_date>  (190) 
nan

>  <method>  (190) 
nan

>  <submitter_email>  (190) 
nan

>  <original SMILES>  (190) 
Cc1nc(CCCc2ccc3nc(CNC(=O)C(C)C)[nH]c3c2)n(CCC(=O)O)n1

>  <ref_url>  (190) 
nan

>  <submitter_name>  (190) 
nan

>  <submitter_institution>  (190) 
nan

$$$$
x0253_0_A_α-x0159_0_B_β
     RDKit          3D

 24 26  0  0  0  0  0  0  0  0999 V2000
    0.3970   12.1510   -5.4420 N   0  0  0  0  0  0  0  0  0  0  0  0
    1.1510   11.7710   -6.5190 C   0  0  0  0  0  0  0  0  0  0  0  0
    2.2520   12.2350   -6.7220 O   0  0  0  0  0  0  0  0  0  0  0  0
    1.0600   12.9230   -4.4080 C   0  0  0  0  0  0  0  0  0  0  0  0
    0.8540   12.3210   -3.0290 C   0  0  0  0  0  0  0  0  0  0  0  0
    0.6050   10.7180   -7.4120 C   0  0  0  0  0  0  0  0  0  0  0  0
    1.3100   12.7450   -1.9800 O   0  0  0  0  0  0  0  0  0  0  0  0
    0.0890   11.2110   -3.0270 O   0  0  0  0  0  0  0  0  0  0  0  0
   -0.6440   10.1770   -7.1150 C   0  0  0  0  0  0  0  0  0  0  0  0
    1.3260   10.2630   -8.5150 C   0  0  0  0  0  0  0  0  0  0  0  0
   -1.1840    9.1730   -7.9190 C   0  0  0  0  0  0  0  0  0  0  0  0
    0.8100    9.2510   -9.3230 C   0  0  0  0  0  0  0  0  0  0  0  0
   -2.5210    8.5760   -7.6150 C   0  0  0  0  0  0  0  0  0  0  0  0
    1.4310    8.6650  -10.4300 N   0  0  0  0  0  0  0  0  0  0  0  0
   -0.4470    8.7260   -9.0130 C   0  0  0  0  0  0  0  0  0  0  0  0
    2.2170    9.1290  -11.4050 C   0  0  0  0  0  0  0  0  0  0  0  0
    1.9970   10.3580  -11.9720 N   0  0  0  0  0  0  0  0  0  0  0  0
    3.2390    8.5340  -11.9600 N   0  0  0  0  0  0  0  0  0  0  0  0
    2.9340   10.5430  -12.9560 C   0  0  0  0  0  0  0  0  0  0  0  0
    3.6940    9.3840  -12.9220 C   0  0  0  0  0  0  0  0  0  0  0  0
    3.1730   11.5860  -13.8440 C   0  0  0  0  0  0  0  0  0  0  0  0
    4.7610    9.2250  -13.8090 C   0  0  0  0  0  0  0  0  0  0  0  0
    4.2440   11.4110  -14.7330 C   0  0  0  0  0  0  0  0  0  0  0  0
    5.0240   10.2530  -14.7150 C   0  0  0  0  0  0  0  0  0  0  0  0
  1  2  1  0
  2  3  2  0
  1  4  1  0
  4  5  1  0
  2  6  1  0
  5  7  2  0
  5  8  1  0
  6  9  2  0
  6 10  1  0
  9 11  1  0
 10 12  2  0
 11 13  1  0
 12 14  1  0
 11 15  2  0
 12 15  1  0
 14 16  1  0
 16 17  1  0
 16 18  2  0
 17 19  1  0
 18 20  1  0
 19 20  2  0
 19 21  1  0
 20 22  1  0
 21 23  2  0
 22 24  2  0
 23 24  1  0
M  END
>  <comRMSD>  (191) 
0.456118

>  <∆∆G>  (191) 
-5.314482

>  <N_constrained_atoms>  (191) 
24.0

>  <LE>  (191) 
-0.221437

>  <ref_pdb>  (191) 
x0104_0

>  <ref_mols>  (191) 
x0253_0_A_α,x0159_0_B_β

>  <%Rank>  (191) 
3.260124

>  <generation_date>  (191) 
nan

>  <method>  (191) 
nan

>  <submitter_email>  (191) 
nan

>  <original SMILES>  (191) 
Cc1cc(Nc2nc3ccccc3[nH]2)cc(C(=O)NCC(=O)O)c1

>  <ref_url>  (191) 
nan

>  <submitter_name>  (191) 
nan

>  <submitter_institution>  (191) 
nan

$$$$
x0681_0_A_α-x1012_0_A_α
     RDKit          3D

 24 26  0  0  0  0  0  0  0  0999 V2000
   -3.7980   15.6990   -2.9120 N   0  0  0  0  0  0  0  0  0  0  0  0
   -3.2730   14.9080   -1.9380 C   0  0  0  0  0  0  0  0  0  0  0  0
   -2.1260   14.3040   -1.9570 N   0  0  0  0  0  0  0  0  0  0  0  0
   -4.2030   14.8380   -0.7150 C   0  0  1  0  0  0  0  0  0  0  0  0
   -4.9380   13.5470   -0.6050 C   0  0  0  0  0  0  0  0  0  0  0  0
   -3.5830   15.3390    0.5990 C   0  0  0  0  0  0  0  0  0  0  0  0
   -1.2060   14.5350   -3.0940 C   0  0  2  0  0  0  0  0  0  0  0  0
   -5.6560   13.3250    0.5080 N   0  0  0  0  0  0  0  0  0  0  0  0
   -4.3130   14.8600    1.8480 C   0  0  0  0  0  0  0  0  0  0  0  0
   -5.0290   12.5400   -1.4450 N   0  0  0  0  0  0  0  0  0  0  0  0
   -1.8040   14.9620   -4.4210 C   0  0  0  0  0  0  0  0  0  0  0  0
   -0.1610   13.4840   -3.4330 C   0  0  2  0  0  0  0  0  0  0  0  0
    0.2170   12.5300   -2.3120 C   0  0  0  0  0  0  0  0  0  0  0  0
   -5.7030   14.2830    1.5660 C   0  0  0  0  0  0  0  0  0  0  0  0
   -6.2600   12.1170    0.4140 C   0  0  0  0  0  0  0  0  0  0  0  0
   -5.8590   11.6400   -0.8130 C   0  0  0  0  0  0  0  0  0  0  0  0
    1.0090   14.3270   -3.9580 C   0  0  0  0  0  0  0  0  0  0  0  0
   -0.8280   15.8980   -4.9670 N   0  0  0  0  0  0  0  0  0  0  0  0
   -1.1860   17.2200   -4.8460 C   0  0  0  0  0  0  0  0  0  0  0  0
    0.3270   11.2520   -2.7430 O   0  0  0  0  0  0  0  0  0  0  0  0
    0.4140   12.8290   -1.1480 O   0  0  0  0  0  0  0  0  0  0  0  0
    0.5870   15.4030   -5.0090 C   0  0  0  0  0  0  0  0  0  0  0  0
   -0.1910   18.1290   -4.7460 N   0  0  0  0  0  0  0  0  0  0  0  0
   -2.3390   17.6300   -4.8080 O   0  0  0  0  0  0  0  0  0  0  0  0
  1  2  1  0
  2  3  2  3
  4  2  1  6
  4  5  1  0
  4  6  1  0
  7  3  1  1
  5  8  1  0
  6  9  1  0
  5 10  2  0
  7 11  1  0
  7 12  1  0
 12 13  1  1
  8 14  1  0
  9 14  1  0
  8 15  1  0
 10 16  1  0
 15 16  2  0
 12 17  1  0
 11 18  1  0
 18 19  1  0
 13 20  1  0
 13 21  2  0
 17 22  1  0
 18 22  1  0
 19 23  1  0
 19 24  2  0
M  END
>  <comRMSD>  (192) 
0.537825

>  <∆∆G>  (192) 
-9.210863

>  <N_constrained_atoms>  (192) 
24.0

>  <LE>  (192) 
-0.383786

>  <ref_pdb>  (192) 
x0104_0

>  <ref_mols>  (192) 
x0681_0_A_α,x1012_0_A_α

>  <%Rank>  (192) 
3.277282

>  <generation_date>  (192) 
nan

>  <method>  (192) 
nan

>  <submitter_email>  (192) 
nan

>  <original SMILES>  (192) 
NC(=O)N1CCC(C(=O)O)C(N=C(N)C2CCCn3ccnc32)C1

>  <ref_url>  (192) 
nan

>  <submitter_name>  (192) 
nan

>  <submitter_institution>  (192) 
nan

$$$$
x0722_0_A_α-5CB5_0_M_γ
     RDKit          3D

 20 21  0  0  0  0  0  0  0  0999 V2000
   -4.4850   15.7200    2.0130 C   0  0  0  0  0  0  0  0  0  0  0  0
   -3.4000   15.2310    1.1800 C   0  0  0  0  0  0  0  0  0  0  0  0
   -2.2730   14.9350    1.7840 N   0  0  0  0  0  0  0  0  0  0  0  0
   -3.3480   15.0210   -0.2260 C   0  0  0  0  0  0  0  0  0  0  0  0
   -4.4750   15.2650   -1.1890 C   0  0  0  0  0  0  0  0  0  0  0  0
   -2.0290   14.5610   -0.4300 C   0  0  0  0  0  0  0  0  0  0  0  0
   -1.4680   14.5440    0.8200 N   0  0  0  0  0  0  0  0  0  0  0  0
   -0.1390   14.1620    1.1920 C   0  0  0  0  0  0  0  0  0  0  0  0
   -1.1870   14.1270   -1.6100 C   0  0  0  0  0  0  0  0  0  0  0  0
   -5.8110   14.7100   -0.7040 C   0  0  0  0  0  0  0  0  0  0  0  0
   -6.8800   15.3060   -0.8110 O   0  0  0  0  0  0  0  0  0  0  0  0
   -5.7760   13.4730   -0.1250 N   0  0  0  0  0  0  0  0  0  0  0  0
   -1.4410   14.7280   -3.0090 C   0  0  1  0  0  0  0  0  0  0  0  0
   -0.4750   15.7730   -3.3020 O   0  0  0  0  0  0  0  0  0  0  0  0
   -1.2570   13.7030   -4.1560 C   0  0  2  0  0  0  0  0  0  0  0  0
   -0.6380   12.5050   -3.6710 O   0  0  0  0  0  0  0  0  0  0  0  0
   -0.4530   15.8290   -4.7370 C   0  0  2  0  0  0  0  0  0  0  0  0
   -0.2880   14.3640   -5.1290 C   0  0  1  0  0  0  0  0  0  0  0  0
    0.5780   16.8180   -5.2480 C   0  0  0  0  0  0  0  0  0  0  0  0
    1.0330   13.8600   -4.9380 O   0  0  0  0  0  0  0  0  0  0  0  0
  1  2  1  0
  2  3  2  0
  2  4  1  0
  4  5  1  0
  4  6  2  0
  3  7  1  0
  6  7  1  0
  7  8  1  0
  6  9  1  0
  5 10  1  0
 10 11  2  0
 10 12  1  0
 13  9  1  1
 13 14  1  0
 13 15  1  0
 15 16  1  1
 14 17  1  0
 15 18  1  0
 17 18  1  0
 17 19  1  1
 18 20  1  1
M  END
>  <comRMSD>  (193) 
0.465855

>  <∆∆G>  (193) 
-7.517941

>  <N_constrained_atoms>  (193) 
20.0

>  <LE>  (193) 
-0.375897

>  <ref_pdb>  (193) 
x0104_0

>  <ref_mols>  (193) 
x0722_0_A_α

>  <%Rank>  (193) 
3.294441

>  <generation_date>  (193) 
nan

>  <method>  (193) 
nan

>  <submitter_email>  (193) 
nan

>  <original SMILES>  (193) 
Cc1nn(C)c(CC2OC(C)C(O)C2O)c1CC(N)=O

>  <ref_url>  (193) 
nan

>  <submitter_name>  (193) 
nan

>  <submitter_institution>  (193) 
nan

$$$$
x0628_0_A_α-x0722_0_A_α
     RDKit          3D

 26 27  0  0  0  0  0  0  0  0999 V2000
   -0.8620    8.9570   -7.3390 C   0  0  0  0  0  0  0  0  0  0  0  0
   -0.8670   10.1610   -6.4860 C   0  0  0  0  0  0  0  0  0  0  0  0
   -1.8620   10.4190   -5.5820 N   0  0  0  0  0  0  0  0  0  0  0  0
    0.1020   11.0830   -6.5370 N   0  0  0  0  0  0  0  0  0  0  0  0
   -0.3170   11.9680   -5.6000 N   0  0  0  0  0  0  0  0  0  0  0  0
   -1.5030   11.5600   -5.0300 C   0  0  0  0  0  0  0  0  0  0  0  0
   -2.2450   12.2990   -3.9640 C   0  0  0  0  0  0  0  0  0  0  0  0
    0.4740   13.1540   -5.3250 C   0  0  0  0  0  0  0  0  0  0  0  0
    1.6610   12.9240   -4.4020 C   0  0  0  0  0  0  0  0  0  0  0  0
   -1.9270   11.7780   -2.5590 C   0  0  0  0  0  0  0  0  0  0  0  0
    1.2420   12.2220   -3.1350 C   0  0  0  0  0  0  0  0  0  0  0  0
   -1.1480   12.8290   -1.7580 C   0  0  0  0  0  0  0  0  0  0  0  0
    0.5540   11.2090   -3.1010 O   0  0  0  0  0  0  0  0  0  0  0  0
    1.6780   12.8280   -2.0180 O   0  0  0  0  0  0  0  0  0  0  0  0
   -1.7870   14.2200   -1.7580 C   0  0  0  0  0  0  0  0  0  0  0  0
   -2.3040   14.6220   -0.4220 C   0  0  0  0  0  0  0  0  0  0  0  0
   -3.5420   15.1450   -0.0680 C   0  0  0  0  0  0  0  0  0  0  0  0
   -1.5780   14.5440    0.7500 N   0  0  0  0  0  0  0  0  0  0  0  0
   -0.2330   14.0950    0.9990 C   0  0  0  0  0  0  0  0  0  0  0  0
   -4.7290   15.4620   -0.9340 C   0  0  0  0  0  0  0  0  0  0  0  0
   -2.2520   14.9610    1.7970 N   0  0  0  0  0  0  0  0  0  0  0  0
   -3.4230   15.3320    1.3250 C   0  0  0  0  0  0  0  0  0  0  0  0
   -4.3800   15.8740    2.2660 C   0  0  0  0  0  0  0  0  0  0  0  0
   -5.9930   14.6920   -0.5680 C   0  0  0  0  0  0  0  0  0  0  0  0
   -7.1330   15.1180   -0.7320 O   0  0  0  0  0  0  0  0  0  0  0  0
   -5.8080   13.4530   -0.0220 N   0  0  0  0  0  0  0  0  0  0  0  0
  1  2  1  0
  2  3  1  0
  2  4  2  0
  4  5  1  0
  3  6  2  0
  5  6  1  0
  6  7  1  0
  5  8  1  0
  8  9  1  0
  7 10  1  0
  9 11  1  0
 10 12  1  0
 11 13  2  0
 11 14  1  0
 12 15  1  0
 15 16  1  0
 16 17  2  0
 16 18  1  0
 18 19  1  0
 17 20  1  0
 18 21  1  0
 17 22  1  0
 21 22  2  0
 22 23  1  0
 20 24  1  0
 24 25  2  0
 24 26  1  0
M  END
>  <comRMSD>  (194) 
0.259478

>  <∆∆G>  (194) 
-6.317593

>  <N_constrained_atoms>  (194) 
24.0

>  <LE>  (194) 
-0.242984

>  <ref_pdb>  (194) 
x0104_0

>  <ref_mols>  (194) 
x0628_0_A_α,x0722_0_A_α

>  <%Rank>  (194) 
3.311599

>  <generation_date>  (194) 
nan

>  <method>  (194) 
nan

>  <submitter_email>  (194) 
nan

>  <original SMILES>  (194) 
Cc1nc(CCCCc2c(CC(N)=O)c(C)nn2C)n(CCC(=O)O)n1

>  <ref_url>  (194) 
nan

>  <submitter_name>  (194) 
nan

>  <submitter_institution>  (194) 
nan

$$$$
x0128_0_A_α-5CB5_0_A_δ
     RDKit          3D

 26 29  0  0  0  0  0  0  0  0999 V2000
   -6.6860   14.6260    2.5100 N   0  0  0  0  0  0  0  0  0  0  0  0
   -7.7880   15.1220    3.1680 C   0  0  0  0  0  0  0  0  0  0  0  0
   -8.8670   15.3140    2.6160 O   0  0  0  0  0  0  0  0  0  0  0  0
   -6.3740   14.8430    1.1600 C   0  0  0  0  0  0  0  0  0  0  0  0
   -7.5460   15.4020    4.5070 N   0  0  0  0  0  0  0  0  0  0  0  0
   -7.3090   14.6670    0.1480 C   0  0  0  0  0  0  0  0  0  0  0  0
   -5.0580   15.2790    0.8310 C   0  0  0  0  0  0  0  0  0  0  0  0
   -4.0450   15.4650    1.7770 N   0  0  0  0  0  0  0  0  0  0  0  0
   -6.9610   14.9230   -1.1780 C   0  0  0  0  0  0  0  0  0  0  0  0
   -4.7450   15.5320   -0.4980 C   0  0  0  0  0  0  0  0  0  0  0  0
   -8.4030   16.1560    5.3370 C   0  0  0  0  0  0  0  0  0  0  0  0
   -5.6830   15.3560   -1.4960 C   0  0  0  0  0  0  0  0  0  0  0  0
   -9.1140   17.2830    4.9320 C   0  0  0  0  0  0  0  0  0  0  0  0
   -8.5630   15.7510    6.6650 C   0  0  0  0  0  0  0  0  0  0  0  0
   -2.8190   14.9860    1.1080 C   0  0  1  0  0  0  0  0  0  0  0  0
   -9.9400   17.9990    5.7360 N   0  0  0  0  0  0  0  0  0  0  0  0
   -9.4060   16.4730    7.5130 C   0  0  0  0  0  0  0  0  0  0  0  0
   -2.7790   15.3640   -0.3920 C   0  0  1  0  0  0  0  0  0  0  0  0
   -1.5330   15.3910    1.5950 N   0  0  0  0  0  0  0  0  0  0  0  0
  -10.0640   17.5790    7.0070 C   0  0  0  0  0  0  0  0  0  0  0  0
   -1.3650   15.3630   -0.9790 C   0  0  2  0  0  0  0  0  0  0  0  0
   -3.4200   14.3510   -1.2630 N   0  0  0  0  0  0  0  0  0  0  0  0
   -0.4260   14.6210    1.0950 C   0  0  0  0  0  0  0  0  0  0  0  0
   -1.5130   14.8820   -2.3480 N   0  0  0  0  0  0  0  0  0  0  0  0
   -2.9450   14.7580   -2.5550 C   0  0  0  0  0  0  0  0  0  0  0  0
   -0.3780   14.5430   -0.3460 N   0  0  0  0  0  0  0  0  0  0  0  0
  1  2  1  0
  2  3  2  0
  1  4  1  0
  2  5  1  0
  4  6  2  0
  4  7  1  0
  7  8  1  0
  6  9  1  0
  7 10  2  0
  5 11  1  0
  9 12  2  0
 10 12  1  0
 11 13  2  0
 11 14  1  0
 15  8  1  1
 13 16  1  0
 14 17  2  0
 15 18  1  0
 15 19  1  0
 16 20  2  0
 17 20  1  0
 18 21  1  0
 18 22  1  6
 19 23  1  0
 21 24  1  6
 22 25  1  0
 24 25  1  0
 21 26  1  0
 23 26  1  0
M  END
>  <comRMSD>  (195) 
0.514281

>  <∆∆G>  (195) 
-7.186169

>  <N_constrained_atoms>  (195) 
26.0

>  <LE>  (195) 
-0.276391

>  <ref_pdb>  (195) 
x0104_0

>  <ref_mols>  (195) 
x0128_0_A_α

>  <%Rank>  (195) 
3.328758

>  <generation_date>  (195) 
nan

>  <method>  (195) 
nan

>  <submitter_email>  (195) 
nan

>  <original SMILES>  (195) 
O=C(Nc1cccnc1)Nc1ccccc1NC1NCNC2NCNC21

>  <ref_url>  (195) 
nan

>  <submitter_name>  (195) 
nan

>  <submitter_institution>  (195) 
nan

$$$$
x0628_0_A_α-x0681_0_A_α
     RDKit          3D

 25 27  0  0  0  0  0  0  0  0999 V2000
   -0.7630    9.0100   -7.1520 C   0  0  0  0  0  0  0  0  0  0  0  0
   -0.8260   10.2940   -6.4290 C   0  0  0  0  0  0  0  0  0  0  0  0
   -1.9490   10.7190   -5.7820 N   0  0  0  0  0  0  0  0  0  0  0  0
    0.2060   11.1340   -6.3520 N   0  0  0  0  0  0  0  0  0  0  0  0
   -0.2990   12.1420   -5.6120 N   0  0  0  0  0  0  0  0  0  0  0  0
   -1.6100   11.8960   -5.2660 C   0  0  0  0  0  0  0  0  0  0  0  0
   -2.5490   12.7510   -4.4650 C   0  0  0  0  0  0  0  0  0  0  0  0
    0.5670   13.2670   -5.3170 C   0  0  0  0  0  0  0  0  0  0  0  0
    1.6680   12.9390   -4.3150 C   0  0  0  0  0  0  0  0  0  0  0  0
   -2.0710   14.0690   -3.8160 C   0  0  0  0  0  0  0  0  0  0  0  0
    1.1140   12.2830   -3.0810 C   0  0  0  0  0  0  0  0  0  0  0  0
   -2.3860   13.9640   -2.4040 N   0  0  0  0  0  0  0  0  0  0  0  0
    0.6300   11.1660   -2.9870 O   0  0  0  0  0  0  0  0  0  0  0  0
    1.1960   13.0770   -2.0010 O   0  0  0  0  0  0  0  0  0  0  0  0
   -3.3000   14.6180   -1.7640 C   0  0  0  0  0  0  0  0  0  0  0  0
   -4.0550   15.5390   -2.4450 N   0  0  0  0  0  0  0  0  0  0  0  0
   -3.5770   14.3390   -0.2870 C   0  0  2  0  0  0  0  0  0  0  0  0
   -4.6920   13.3340   -0.2730 C   0  0  0  0  0  0  0  0  0  0  0  0
   -3.9520   15.5950    0.5120 C   0  0  0  0  0  0  0  0  0  0  0  0
   -5.7190   13.4010    0.6220 N   0  0  0  0  0  0  0  0  0  0  0  0
   -4.5180   15.1480    1.8470 C   0  0  0  0  0  0  0  0  0  0  0  0
   -4.8510   12.3000   -1.0730 N   0  0  0  0  0  0  0  0  0  0  0  0
   -5.8420   14.4180    1.6290 C   0  0  0  0  0  0  0  0  0  0  0  0
   -6.5700   12.3660    0.3900 C   0  0  0  0  0  0  0  0  0  0  0  0
   -6.0130   11.6950   -0.6690 C   0  0  0  0  0  0  0  0  0  0  0  0
  1  2  1  0
  2  3  1  0
  2  4  2  0
  4  5  1  0
  3  6  2  0
  5  6  1  0
  6  7  1  0
  5  8  1  0
  8  9  1  0
  7 10  1  0
  9 11  1  0
 10 12  1  0
 11 13  2  0
 11 14  1  0
 12 15  2  3
 15 16  1  0
 17 15  1  6
 17 18  1  0
 17 19  1  0
 18 20  1  0
 19 21  1  0
 18 22  2  0
 20 23  1  0
 21 23  1  0
 20 24  1  0
 22 25  1  0
 24 25  2  0
M  END
>  <comRMSD>  (196) 
0.330778

>  <∆∆G>  (196) 
-4.414258

>  <N_constrained_atoms>  (196) 
24.0

>  <LE>  (196) 
-0.17657

>  <ref_pdb>  (196) 
x0104_0

>  <ref_mols>  (196) 
x0628_0_A_α,x0681_0_A_α

>  <%Rank>  (196) 
3.345916

>  <generation_date>  (196) 
nan

>  <method>  (196) 
nan

>  <submitter_email>  (196) 
nan

>  <original SMILES>  (196) 
Cc1nc(CCN=C(N)C2CCCn3ccnc32)n(CCC(=O)O)n1

>  <ref_url>  (196) 
nan

>  <submitter_name>  (196) 
nan

>  <submitter_institution>  (196) 
nan

$$$$
x0685_0_A_α-x0837_0_A_α
     RDKit          3D

 12 12  0  0  0  0  0  0  0  0999 V2000
   -5.9590   14.6090    2.6570 N   0  0  0  0  0  0  0  0  0  0  0  0
   -7.3640   14.8530    2.9550 C   0  0  0  0  0  0  0  0  0  0  0  0
   -8.0920   13.5370    3.1720 C   0  0  0  0  0  0  0  0  0  0  0  0
   -5.3540   14.7760    1.4070 C   0  0  0  0  0  0  0  0  0  0  0  0
   -3.9690   14.9060    1.2980 C   0  0  0  0  0  0  0  0  0  0  0  0
   -6.1620   14.8040    0.2480 N   0  0  0  0  0  0  0  0  0  0  0  0
   -7.4350   14.6840    0.3290 O   0  0  0  0  0  0  0  0  0  0  0  0
   -3.3850   15.0610    0.0530 C   0  0  0  0  0  0  0  0  0  0  0  0
   -5.5590   14.9610   -0.9790 C   0  0  0  0  0  0  0  0  0  0  0  0
   -4.1790   15.0860   -1.0920 C   0  0  0  0  0  0  0  0  0  0  0  0
   -3.5860   15.2370   -2.3800 C   0  0  0  0  0  0  0  0  0  0  0  0
   -3.1090   15.3380   -3.4320 N   0  0  0  0  0  0  0  0  0  0  0  0
  1  2  1  0
  2  3  1  0
  1  4  1  0
  4  5  2  0
  4  6  1  0
  6  7  1  0
  5  8  1  0
  6  9  2  0
  8 10  2  0
  9 10  1  0
 10 11  1  0
 11 12  3  0
M  CHG  2   6   1   7  -1
M  END
>  <comRMSD>  (197) 
0.313188

>  <∆∆G>  (197) 
-5.332364

>  <N_constrained_atoms>  (197) 
12.0

>  <LE>  (197) 
-0.444364

>  <ref_pdb>  (197) 
x0104_0

>  <ref_mols>  (197) 
x0685_0_A_α,x0837_0_A_α

>  <%Rank>  (197) 
3.363075

>  <generation_date>  (197) 
nan

>  <method>  (197) 
nan

>  <submitter_email>  (197) 
nan

>  <original SMILES>  (197) 
CCNc1ccc(C#N)c[n+]1[O-]

>  <ref_url>  (197) 
nan

>  <submitter_name>  (197) 
nan

>  <submitter_institution>  (197) 
nan

$$$$
6mea_B_0_B_γ-6woj_A_0_A_β
     RDKit          3D

 16 16  0  0  0  0  0  0  0  0999 V2000
   -1.9510   12.9650   -4.2290 O   0  0  0  0  0  0  0  0  0  0  0  0
   -0.6230   13.3790   -3.9710 C   0  0  2  0  0  0  0  0  0  0  0  0
   -0.4870   14.2510   -2.7150 C   0  0  0  0  0  0  0  0  0  0  0  0
   -0.0810   14.2670   -5.0700 C   0  0  2  0  0  0  0  0  0  0  0  0
    1.3390   14.0520   -5.0880 O   0  0  0  0  0  0  0  0  0  0  0  0
   -0.0640   15.5620   -3.1410 O   0  0  0  0  0  0  0  0  0  0  0  0
   -0.4880   15.6220   -4.5100 C   0  0  1  0  0  0  0  0  0  0  0  0
    0.0970   16.8490   -5.1620 C   0  0  0  0  0  0  0  0  0  0  0  0
   -1.0890   18.1250   -5.6180 P   0  0  2  0  0  0  0  0  0  0  0  0
   -0.1710   19.1890   -6.2920 O   0  0  0  0  0  0  0  0  0  0  0  0
   -1.7700   18.7290   -4.4470 O   0  0  0  0  0  0  0  0  0  0  0  0
   -2.1590   17.5880   -6.6960 O   0  0  0  0  0  0  0  0  0  0  0  0
    0.0020   19.8680   -7.6660 P   0  0  0  0  0  0  0  0  0  0  0  0
   -1.4560   20.3900   -8.0280 O   0  0  0  0  0  0  0  0  0  0  0  0
    1.0790   20.8950   -7.6940 O   0  0  0  0  0  0  0  0  0  0  0  0
    0.1550   18.6530   -8.7010 O   0  0  0  0  0  0  0  0  0  0  0  0
  2  1  1  6
  2  3  1  0
  2  4  1  0
  4  5  1  1
  3  6  1  0
  4  7  1  0
  6  7  1  0
  7  8  1  6
  8  9  1  0
  9 10  1  0
  9 11  2  0
  9 12  1  6
 10 13  1  0
 13 14  1  0
 13 15  2  0
 13 16  1  0
M  END
>  <comRMSD>  (198) 
0.518118

>  <∆∆G>  (198) 
-10.328143

>  <N_constrained_atoms>  (198) 
16.0

>  <LE>  (198) 
-0.645509

>  <ref_pdb>  (198) 
x0104_0

>  <ref_mols>  (198) 


>  <%Rank>  (198) 
3.380233

>  <generation_date>  (198) 
nan

>  <method>  (198) 
nan

>  <submitter_email>  (198) 
nan

>  <original SMILES>  (198) 
O=P(O)(O)OP(=O)(O)CC1OCC(O)C1O

>  <ref_url>  (198) 
nan

>  <submitter_name>  (198) 
nan

>  <submitter_institution>  (198) 
nan

$$$$
x0727_0_A_α-x0587_0_A_α
     RDKit          3D

 29 30  0  0  0  0  0  0  0  0999 V2000
    0.2260   11.4080   -5.5560 N   0  0  0  0  0  0  0  0  0  0  0  0
    0.9380   12.3320   -4.6750 C   0  0  1  0  0  0  0  0  0  0  0  0
    0.5140   13.7670   -4.9450 C   0  0  0  0  0  0  0  0  0  0  0  0
    0.7490   11.0860   -6.7720 C   0  0  0  0  0  0  0  0  0  0  0  0
    1.6790   11.7030   -7.2100 O   0  0  0  0  0  0  0  0  0  0  0  0
    0.6770   11.9360   -3.2160 C   0  0  0  0  0  0  0  0  0  0  0  0
    0.1490    9.9100   -7.5240 C   0  0  0  0  0  0  0  0  0  0  0  0
    0.2350   10.8450   -2.8570 O   0  0  0  0  0  0  0  0  0  0  0  0
    1.0090   12.9550   -2.3730 O   0  0  0  0  0  0  0  0  0  0  0  0
   -1.1480   10.2840   -8.2470 C   0  0  0  0  0  0  0  0  0  0  0  0
   -0.1860    8.7030   -6.6250 C   0  0  0  0  0  0  0  0  0  0  0  0
    0.1250   13.1130   -1.2530 C   0  0  0  0  0  0  0  0  0  0  0  0
   -2.1030    9.1210   -7.9990 C   0  0  0  0  0  0  0  0  0  0  0  0
   -1.7000    8.5900   -6.6350 C   0  0  0  0  0  0  0  0  0  0  0  0
   -0.8570   14.2540   -1.4830 C   0  0  0  0  0  0  0  0  0  0  0  0
   -2.1930   14.0020   -0.7770 C   0  0  0  0  0  0  0  0  0  0  0  0
   -3.1200   15.0430   -1.0920 O   0  0  0  0  0  0  0  0  0  0  0  0
   -4.4380   14.5930   -1.4530 C   0  0  0  0  0  0  0  0  0  0  0  0
   -4.2950   13.3190   -1.9250 F   0  0  0  0  0  0  0  0  0  0  0  0
   -4.8250   15.3200   -2.5410 F   0  0  0  0  0  0  0  0  0  0  0  0
   -5.4670   14.6650   -0.3040 C   0  0  0  0  0  0  0  0  0  0  0  0
   -6.7940   14.5680   -0.5920 N   0  0  0  0  0  0  0  0  0  0  0  0
   -4.9930   14.8180    0.9560 N   0  0  0  0  0  0  0  0  0  0  0  0
   -7.6630   14.6470    0.4430 C   0  0  0  0  0  0  0  0  0  0  0  0
   -5.9080   14.8940    1.9480 C   0  0  0  0  0  0  0  0  0  0  0  0
   -7.2690   14.8110    1.7540 C   0  0  0  0  0  0  0  0  0  0  0  0
   -8.2590   14.9130    2.8350 C   0  0  0  0  0  0  0  0  0  0  0  0
   -7.7990   14.8460    4.1140 N   0  0  0  0  0  0  0  0  0  0  0  0
   -9.4520   15.0710    2.5940 O   0  0  0  0  0  0  0  0  0  0  0  0
  1  2  1  0
  2  3  1  1
  1  4  1  0
  4  5  2  0
  2  6  1  0
  4  7  1  0
  6  8  2  0
  6  9  1  0
  7 10  1  0
  7 11  1  0
  9 12  1  0
 10 13  1  0
 11 14  1  0
 13 14  1  0
 12 15  1  0
 15 16  1  0
 16 17  1  0
 17 18  1  0
 18 19  1  0
 18 20  1  0
 18 21  1  0
 21 22  2  0
 21 23  1  0
 22 24  1  0
 23 25  2  0
 24 26  2  0
 25 26  1  0
 26 27  1  0
 27 28  1  0
 27 29  2  0
M  END
>  <comRMSD>  (199) 
0.189403

>  <∆∆G>  (199) 
-5.842971

>  <N_constrained_atoms>  (199) 
26.0

>  <LE>  (199) 
-0.201482

>  <ref_pdb>  (199) 
x0104_0

>  <ref_mols>  (199) 
x0727_0_A_α,x0587_0_A_α

>  <%Rank>  (199) 
3.397392

>  <generation_date>  (199) 
nan

>  <method>  (199) 
nan

>  <submitter_email>  (199) 
nan

>  <original SMILES>  (199) 
C[C@H](NC(=O)C1CCCC1)C(=O)OCCCOC(F)(F)c1ncc(C(N)=O)cn1

>  <ref_url>  (199) 
nan

>  <submitter_name>  (199) 
nan

>  <submitter_institution>  (199) 
nan

$$$$
5CMS_0_E_γ-6woj_B_0_B_β
     RDKit          3D

 16 16  0  0  0  0  0  0  0  0999 V2000
   -1.5770   12.2780   -4.2090 O   0  0  0  0  0  0  0  0  0  0  0  0
   -0.4720   13.1260   -3.9610 C   0  0  2  0  0  0  0  0  0  0  0  0
   -0.7100   14.1150   -2.8170 C   0  0  0  0  0  0  0  0  0  0  0  0
   -0.1220   14.0110   -5.1580 C   0  0  2  0  0  0  0  0  0  0  0  0
    1.3000   13.8770   -5.3170 O   0  0  0  0  0  0  0  0  0  0  0  0
   -0.2420   15.3920   -3.2660 O   0  0  0  0  0  0  0  0  0  0  0  0
   -0.5740   15.4000   -4.6630 C   0  0  1  0  0  0  0  0  0  0  0  0
    0.0480   16.6400   -5.2820 C   0  0  0  0  0  0  0  0  0  0  0  0
   -1.0890   18.0150   -5.6420 P   0  0  2  0  0  0  0  0  0  0  0  0
   -0.1840   19.1320   -6.2750 O   0  0  0  0  0  0  0  0  0  0  0  0
   -1.7290   18.5490   -4.4180 O   0  0  0  0  0  0  0  0  0  0  0  0
   -2.2160   17.5940   -6.7210 O   0  0  0  0  0  0  0  0  0  0  0  0
   -0.0070   19.8670   -7.6350 P   0  0  0  0  0  0  0  0  0  0  0  0
   -1.4490   20.4410   -7.9860 O   0  0  0  0  0  0  0  0  0  0  0  0
    1.0890   20.8790   -7.6460 O   0  0  0  0  0  0  0  0  0  0  0  0
    0.1160   18.6950   -8.7220 O   0  0  0  0  0  0  0  0  0  0  0  0
  2  1  1  6
  2  3  1  0
  2  4  1  0
  4  5  1  1
  3  6  1  0
  4  7  1  0
  6  7  1  0
  7  8  1  6
  8  9  1  0
  9 10  1  0
  9 11  2  0
  9 12  1  6
 10 13  1  0
 13 14  1  0
 13 15  2  0
 13 16  1  0
M  END
>  <comRMSD>  (200) 
0.531892

>  <∆∆G>  (200) 
-10.736298

>  <N_constrained_atoms>  (200) 
16.0

>  <LE>  (200) 
-0.671019

>  <ref_pdb>  (200) 
x0104_0

>  <ref_mols>  (200) 


>  <%Rank>  (200) 
3.41455

>  <generation_date>  (200) 
nan

>  <method>  (200) 
nan

>  <submitter_email>  (200) 
nan

>  <original SMILES>  (200) 
O=P(O)(O)OP(=O)(O)CC1OCC(O)C1O

>  <ref_url>  (200) 
nan

>  <submitter_name>  (200) 
nan

>  <submitter_institution>  (200) 
nan

$$$$
x1012_0_A_α-x0844_0_A_α
     RDKit          3D

 21 22  0  0  0  0  0  0  0  0999 V2000
   -0.1830   18.1690   -4.7950 N   0  0  0  0  0  0  0  0  0  0  0  0
   -1.1770   17.2510   -4.7960 C   0  0  0  0  0  0  0  0  0  0  0  0
   -2.3300   17.6640   -4.8270 O   0  0  0  0  0  0  0  0  0  0  0  0
   -0.8030   15.9290   -4.7470 N   0  0  0  0  0  0  0  0  0  0  0  0
   -1.7370   14.8030   -4.7110 C   0  0  0  0  0  0  0  0  0  0  0  0
    0.6220   15.5850   -4.7110 C   0  0  0  0  0  0  0  0  0  0  0  0
   -1.4700   13.8040   -3.5710 C   0  0  2  0  0  0  0  0  0  0  0  0
    0.9660   14.6450   -3.5560 C   0  0  0  0  0  0  0  0  0  0  0  0
   -2.0810   14.2750   -2.2260 C   0  0  0  0  0  0  0  0  0  0  0  0
    0.0290   13.4230   -3.5290 C   0  0  1  0  0  0  0  0  0  0  0  0
    0.3090   12.4860   -2.3710 C   0  0  0  0  0  0  0  0  0  0  0  0
   -3.4840   14.4650   -2.3400 O   0  0  0  0  0  0  0  0  0  0  0  0
    0.2240   11.1880   -2.7140 O   0  0  0  0  0  0  0  0  0  0  0  0
    0.5710   12.7830   -1.2200 O   0  0  0  0  0  0  0  0  0  0  0  0
   -4.1020   15.3070   -1.3550 C   0  0  2  0  0  0  0  0  0  0  0  0
   -3.4700   15.0760   -0.0210 C   0  0  0  0  0  0  0  0  0  0  0  0
   -5.6130   15.0730   -1.4080 C   0  0  0  0  0  0  0  0  0  0  0  0
   -4.1810   14.8650    1.0790 C   0  0  0  0  0  0  0  0  0  0  0  0
   -6.3100   14.8760   -0.0800 C   0  0  0  0  0  0  0  0  0  0  0  0
   -7.5330   14.7560   -0.0080 O   0  0  0  0  0  0  0  0  0  0  0  0
   -5.5400   14.8360    1.0530 N   0  0  0  0  0  0  0  0  0  0  0  0
  1  2  1  0
  2  3  2  0
  2  4  1  0
  4  5  1  0
  4  6  1  0
  5  7  1  0
  6  8  1  0
  7  9  1  1
  7 10  1  0
  8 10  1  0
 10 11  1  1
  9 12  1  0
 11 13  1  0
 11 14  2  0
 15 12  1  6
 15 16  1  0
 15 17  1  0
 16 18  2  0
 17 19  1  0
 19 20  2  0
 18 21  1  0
 19 21  1  0
M  END
>  <comRMSD>  (201) 
0.347075

>  <∆∆G>  (201) 
-8.064411

>  <N_constrained_atoms>  (201) 
20.0

>  <LE>  (201) 
-0.38402

>  <ref_pdb>  (201) 
x0104_0

>  <ref_mols>  (201) 
x1012_0_A_α,x0844_0_A_α

>  <%Rank>  (201) 
3.431709

>  <generation_date>  (201) 
nan

>  <method>  (201) 
nan

>  <submitter_email>  (201) 
nan

>  <original SMILES>  (201) 
NC(=O)N1CCC(C(=O)O)C(COC2C=CNC(=O)C2)C1

>  <ref_url>  (201) 
nan

>  <submitter_name>  (201) 
nan

>  <submitter_institution>  (201) 
nan

$$$$
x0852_0_B_α-x1018_0_A_α
     RDKit          3D

 22 24  0  0  0  0  0  0  0  0999 V2000
   -9.6190   17.7830    7.1270 N   0  0  0  0  0  0  0  0  0  0  0  0
   -9.3980   17.2400    6.1220 C   0  0  0  0  0  0  0  0  0  0  0  0
   -9.2120   16.5200    4.9000 C   0  0  0  0  0  0  0  0  0  0  0  0
   -8.3190   15.4450    4.8000 C   0  0  0  0  0  0  0  0  0  0  0  0
   -9.9590   16.9040    3.7720 C   0  0  0  0  0  0  0  0  0  0  0  0
   -7.5250   14.9620    5.8020 O   0  0  0  0  0  0  0  0  0  0  0  0
   -8.1880   14.7670    3.6000 C   0  0  0  0  0  0  0  0  0  0  0  0
   -9.8270   16.2170    2.5560 C   0  0  0  0  0  0  0  0  0  0  0  0
  -10.5060   16.4810    1.3770 O   0  0  0  0  0  0  0  0  0  0  0  0
   -8.9400   15.1520    2.4940 C   0  0  0  0  0  0  0  0  0  0  0  0
   -9.7950   16.6260    0.1260 C   0  0  0  0  0  0  0  0  0  0  0  0
   -9.1110   15.3170   -0.3120 C   0  0  0  0  0  0  0  0  0  0  0  0
   -8.1920   14.6620    0.7340 C   0  0  0  0  0  0  0  0  0  0  0  0
   -6.7220   14.6950    0.3490 C   0  0  0  0  0  0  0  0  0  0  0  0
   -6.4130   14.7840   -0.9050 N   0  0  0  0  0  0  0  0  0  0  0  0
   -5.7250   14.6310    1.4740 C   0  0  0  0  0  0  0  0  0  0  0  0
   -5.0780   14.8130   -1.1150 N   0  0  0  0  0  0  0  0  0  0  0  0
   -4.4220   14.6670    1.1680 C   0  0  0  0  0  0  0  0  0  0  0  0
   -4.5510   14.9000   -2.3420 N   0  0  0  0  0  0  0  0  0  0  0  0
   -4.0600   14.7620   -0.1860 C   0  0  0  0  0  0  0  0  0  0  0  0
   -2.9120   14.8150   -0.8240 N   0  0  0  0  0  0  0  0  0  0  0  0
   -3.2380   14.9010   -2.1620 N   0  0  0  0  0  0  0  0  0  0  0  0
  1  2  3  0
  2  3  1  0
  3  4  2  0
  3  5  1  0
  4  6  1  0
  4  7  1  0
  5  8  2  0
  8  9  1  0
  7 10  2  0
  8 10  1  0
  9 11  1  0
 11 12  1  0
 12 13  1  0
 13 14  1  0
 14 15  2  0
 14 16  1  0
 15 17  1  0
 16 18  2  0
 17 19  1  0
 17 20  1  0
 18 20  1  0
 20 21  2  0
 19 22  2  0
 21 22  1  0
M  END
>  <comRMSD>  (202) 
0.183945

>  <∆∆G>  (202) 
-6.736873

>  <N_constrained_atoms>  (202) 
20.0

>  <LE>  (202) 
-0.306221

>  <ref_pdb>  (202) 
x0104_0

>  <ref_mols>  (202) 
x0852_0_B_α,x1018_0_A_α

>  <%Rank>  (202) 
3.448868

>  <generation_date>  (202) 
nan

>  <method>  (202) 
nan

>  <submitter_email>  (202) 
nan

>  <original SMILES>  (202) 
N#Cc1cc(OCCCc2ccc3nnnn3n2)ccc1O

>  <ref_url>  (202) 
nan

>  <submitter_name>  (202) 
nan

>  <submitter_institution>  (202) 
nan

$$$$
x0142_0_A_β-x0091_0_B_α
     RDKit          3D

 27 29  0  0  0  0  0  0  0  0999 V2000
   14.6640    7.0610   11.8990 N   0  0  0  0  0  0  0  0  0  0  0  0
   14.8860    8.2920   12.5240 C   0  0  0  0  0  0  0  0  0  0  0  0
   15.4660    9.3500   11.8220 C   0  0  0  0  0  0  0  0  0  0  0  0
   14.5310    8.4860   13.8580 C   0  0  0  0  0  0  0  0  0  0  0  0
   14.7510    9.7160   14.4910 C   0  0  0  0  0  0  0  0  0  0  0  0
   15.6870   10.5810   12.4490 C   0  0  0  0  0  0  0  0  0  0  0  0
   15.3300   10.7710   13.7870 C   0  0  0  0  0  0  0  0  0  0  0  0
   15.5970   12.0140   14.2800 O   0  0  0  0  0  0  0  0  0  0  0  0
   15.3900   12.2590   15.6690 C   0  0  0  0  0  0  0  0  0  0  0  0
   16.4180   13.2270   16.2590 C   0  0  0  0  0  0  0  0  0  0  0  0
   16.5450   14.5510   15.4900 C   0  0  0  0  0  0  0  0  0  0  0  0
   16.0210   15.7580   16.2710 C   0  0  0  0  0  0  0  0  0  0  0  0
   16.2170   17.0580   15.4840 C   0  0  0  0  0  0  0  0  0  0  0  0
   14.9210   17.6400   15.0590 C   0  0  0  0  0  0  0  0  0  0  0  0
   13.7990   17.0230   15.5130 O   0  0  0  0  0  0  0  0  0  0  0  0
   14.5580   18.7120   14.2740 C   0  0  0  0  0  0  0  0  0  0  0  0
   12.6800   17.6780   15.0330 N   0  0  0  0  0  0  0  0  0  0  0  0
   13.1410   18.6960   14.2870 C   0  0  0  0  0  0  0  0  0  0  0  0
   12.1800   19.6270   13.6060 C   0  0  0  0  0  0  0  0  0  0  0  0
   12.6780   21.0060   13.6230 N   0  0  0  0  0  0  0  0  0  0  0  0
   12.1740   21.8790   14.6710 C   0  0  0  0  0  0  0  0  0  0  0  0
   13.6450   21.4890   12.7540 C   0  0  0  0  0  0  0  0  0  0  0  0
   14.0280   20.8330   11.7900 O   0  0  0  0  0  0  0  0  0  0  0  0
   14.1370   22.7450   13.0400 N   0  0  0  0  0  0  0  0  0  0  0  0
   15.1070   23.3830   12.2040 C   0  0  0  0  0  0  0  0  0  0  0  0
   16.5760   23.1510   12.4390 C   0  0  0  0  0  0  0  0  0  0  0  0
   15.9750   24.4820   12.7650 C   0  0  0  0  0  0  0  0  0  0  0  0
  1  2  1  0
  2  3  2  0
  2  4  1  0
  4  5  2  0
  3  6  1  0
  5  7  1  0
  6  7  2  0
  7  8  1  0
  8  9  1  0
  9 10  1  0
 10 11  1  0
 11 12  1  0
 12 13  1  0
 13 14  1  0
 14 15  1  0
 14 16  2  0
 15 17  1  0
 16 18  1  0
 17 18  2  0
 18 19  1  0
 19 20  1  0
 20 21  1  0
 20 22  1  0
 22 23  2  0
 22 24  1  0
 24 25  1  0
 25 26  1  0
 25 27  1  0
 26 27  1  0
M  END
>  <comRMSD>  (203) 
0.13842

>  <∆∆G>  (203) 
-5.478056

>  <N_constrained_atoms>  (203) 
24.0

>  <LE>  (203) 
-0.202891

>  <ref_pdb>  (203) 
x0104_0

>  <ref_mols>  (203) 
x0142_0_A_β,x0091_0_B_α

>  <%Rank>  (203) 
3.466026

>  <generation_date>  (203) 
nan

>  <method>  (203) 
nan

>  <submitter_email>  (203) 
nan

>  <original SMILES>  (203) 
CN(Cc1cc(CCCCCOc2ccc(N)cc2)on1)C(=O)NC1CC1

>  <ref_url>  (203) 
nan

>  <submitter_name>  (203) 
nan

>  <submitter_institution>  (203) 
nan

$$$$
x0438_0_A_α-x0628_0_A_α
     RDKit          3D

 28 30  0  0  0  0  0  0  0  0999 V2000
   -8.1070   15.5430    3.8450 C   0  0  0  0  0  0  0  0  0  0  0  0
   -9.3240   15.3630    2.5490 S   0  0  0  0  0  0  0  0  0  0  0  0
  -10.5290   14.8350    3.1690 O   0  0  0  0  0  0  0  0  0  0  0  0
   -8.7210   14.0930    1.4490 C   0  0  0  0  0  0  0  0  0  0  0  0
   -9.4360   16.5800    1.7770 O   0  0  0  0  0  0  0  0  0  0  0  0
   -7.3740   14.3560    0.8690 C   0  0  0  0  0  0  0  0  0  0  0  0
   -7.1660   14.4610   -0.4860 N   0  0  0  0  0  0  0  0  0  0  0  0
   -6.2400   14.5000    1.5200 N   0  0  0  0  0  0  0  0  0  0  0  0
   -5.2670   14.6790    0.5620 C   0  0  0  0  0  0  0  0  0  0  0  0
   -5.8260   14.6570   -0.7060 C   0  0  0  0  0  0  0  0  0  0  0  0
   -5.0830   14.8030   -1.8840 C   0  0  0  0  0  0  0  0  0  0  0  0
   -3.8850   14.8610    0.6950 C   0  0  0  0  0  0  0  0  0  0  0  0
   -3.6930   14.9650   -1.7590 C   0  0  0  0  0  0  0  0  0  0  0  0
   -3.1120   14.9970   -0.4720 C   0  0  0  0  0  0  0  0  0  0  0  0
   -2.8170   15.0940   -3.0090 C   0  0  0  0  0  0  0  0  0  0  0  0
   -2.9110   13.9520   -4.0700 C   0  0  0  0  0  0  0  0  0  0  0  0
   -2.2510   12.5920   -3.7150 C   0  0  0  0  0  0  0  0  0  0  0  0
   -1.5610   11.8280   -4.8270 C   0  0  0  0  0  0  0  0  0  0  0  0
   -1.9880   10.7010   -5.3920 N   0  0  0  0  0  0  0  0  0  0  0  0
   -0.3660   12.1660   -5.4360 N   0  0  0  0  0  0  0  0  0  0  0  0
    0.5120   13.2890   -5.1990 C   0  0  0  0  0  0  0  0  0  0  0  0
   -1.0240   10.3960   -6.3240 C   0  0  0  0  0  0  0  0  0  0  0  0
   -0.0180   11.2710   -6.3830 N   0  0  0  0  0  0  0  0  0  0  0  0
   -1.0910    9.1980   -7.1870 C   0  0  0  0  0  0  0  0  0  0  0  0
    1.6610   12.9430   -4.2640 C   0  0  0  0  0  0  0  0  0  0  0  0
    1.1380   12.2800   -3.0240 C   0  0  0  0  0  0  0  0  0  0  0  0
    0.6810   11.1540   -2.9200 O   0  0  0  0  0  0  0  0  0  0  0  0
    1.2190   13.0770   -1.9480 O   0  0  0  0  0  0  0  0  0  0  0  0
  2  1  1  0
  2  3  2  0
  2  4  1  0
  2  5  2  0
  4  6  1  0
  6  7  1  0
  6  8  2  0
  8  9  1  0
  7 10  1  0
  9 10  2  0
 10 11  1  0
  9 12  1  0
 11 13  2  0
 12 14  2  0
 13 14  1  0
 13 15  1  0
 15 16  1  0
 16 17  1  0
 17 18  1  0
 18 19  2  0
 18 20  1  0
 20 21  1  0
 19 22  1  0
 20 23  1  0
 22 23  2  0
 22 24  1  0
 21 25  1  0
 25 26  1  0
 26 27  2  0
 26 28  1  0
M  END
>  <comRMSD>  (204) 
0.273332

>  <∆∆G>  (204) 
-4.76438

>  <N_constrained_atoms>  (204) 
26.0

>  <LE>  (204) 
-0.170156

>  <ref_pdb>  (204) 
x0104_0

>  <ref_mols>  (204) 
x0438_0_A_α,x0628_0_A_α

>  <%Rank>  (204) 
3.483185

>  <generation_date>  (204) 
nan

>  <method>  (204) 
nan

>  <submitter_email>  (204) 
nan

>  <original SMILES>  (204) 
Cc1nc(CCCc2ccc3nc(CS(C)(=O)=O)[nH]c3c2)n(CCC(=O)O)n1

>  <ref_url>  (204) 
nan

>  <submitter_name>  (204) 
nan

>  <submitter_institution>  (204) 
nan

$$$$
x0290_0_A_α-x0371_0_A_α
     RDKit          3D

 20 21  0  0  0  0  0  0  0  0999 V2000
   -7.8920   14.8130    2.1320 N   0  0  0  0  0  0  0  0  0  0  0  0
   -8.4120   14.8260    0.7750 C   0  0  0  0  0  0  0  0  0  0  0  0
   -6.4880   14.3870    2.2850 C   0  0  0  0  0  0  0  0  0  0  0  0
   -8.6700   15.5350    3.1100 C   0  0  0  0  0  0  0  0  0  0  0  0
   -5.3820   14.5850    1.2140 C   0  0  0  0  0  0  0  0  0  0  0  0
   -9.5540   16.2870    2.6950 O   0  0  0  0  0  0  0  0  0  0  0  0
   -8.5110   15.4660    4.5800 C   0  0  0  0  0  0  0  0  0  0  0  0
   -5.5880   14.4030   -0.0000 O   0  0  0  0  0  0  0  0  0  0  0  0
   -4.1270   14.9660    1.6120 N   0  0  0  0  0  0  0  0  0  0  0  0
   -8.0440   14.3650    5.2380 O   0  0  0  0  0  0  0  0  0  0  0  0
   -8.7940   16.4420    5.5350 C   0  0  0  0  0  0  0  0  0  0  0  0
   -2.8660   14.7760    1.0300 C   0  0  0  0  0  0  0  0  0  0  0  0
   -8.0230   14.6300    6.5700 C   0  0  0  0  0  0  0  0  0  0  0  0
   -8.4800   15.8990    6.8090 C   0  0  0  0  0  0  0  0  0  0  0  0
   -1.7950   14.5810    1.8210 N   0  0  0  0  0  0  0  0  0  0  0  0
   -2.7550   14.8030   -0.3570 C   0  0  0  0  0  0  0  0  0  0  0  0
   -0.5890   14.4140    1.2390 C   0  0  0  0  0  0  0  0  0  0  0  0
   -1.4950   14.6200   -0.9530 C   0  0  0  0  0  0  0  0  0  0  0  0
   -1.3440   14.6420   -2.4430 C   0  0  0  0  0  0  0  0  0  0  0  0
   -0.3860   14.4280   -0.1250 C   0  0  0  0  0  0  0  0  0  0  0  0
  1  2  1  0
  1  3  1  0
  1  4  1  0
  3  5  1  0
  4  6  2  0
  4  7  1  0
  5  8  2  0
  5  9  1  0
  7 10  1  0
  7 11  2  0
  9 12  1  0
 10 13  1  0
 11 14  1  0
 13 14  2  0
 12 15  2  0
 12 16  1  0
 15 17  1  0
 16 18  2  0
 18 19  1  0
 17 20  2  0
 18 20  1  0
M  END
>  <comRMSD>  (205) 
0.497833

>  <∆∆G>  (205) 
-8.603195

>  <N_constrained_atoms>  (205) 
20.0

>  <LE>  (205) 
-0.43016

>  <ref_pdb>  (205) 
x0104_0

>  <ref_mols>  (205) 
x0290_0_A_α,x0371_0_A_α

>  <%Rank>  (205) 
3.500343

>  <generation_date>  (205) 
nan

>  <method>  (205) 
nan

>  <submitter_email>  (205) 
nan

>  <original SMILES>  (205) 
Cc1ccnc(NC(=O)CN(C)C(=O)c2ccco2)c1

>  <ref_url>  (205) 
nan

>  <submitter_name>  (205) 
nan

>  <submitter_institution>  (205) 
nan

$$$$
5CMS_0_R_γ-6woj_A_0_A_β
     RDKit          3D

 16 16  0  0  0  0  0  0  0  0999 V2000
   -0.4030   12.2620   -3.8870 O   0  0  0  0  0  0  0  0  0  0  0  0
    0.3750   13.4400   -3.9160 C   0  0  2  0  0  0  0  0  0  0  0  0
    0.0440   14.4160   -2.7920 C   0  0  0  0  0  0  0  0  0  0  0  0
    0.1620   14.2460   -5.1890 C   0  0  2  0  0  0  0  0  0  0  0  0
    1.4380   14.2320   -5.8110 O   0  0  0  0  0  0  0  0  0  0  0  0
    0.2320   15.7270   -3.3330 O   0  0  0  0  0  0  0  0  0  0  0  0
   -0.2790   15.6320   -4.6680 C   0  0  1  0  0  0  0  0  0  0  0  0
    0.1780   16.8820   -5.3850 C   0  0  0  0  0  0  0  0  0  0  0  0
   -1.1150   18.1030   -5.6960 P   0  0  2  0  0  0  0  0  0  0  0  0
   -0.3760   19.3360   -6.3130 O   0  0  0  0  0  0  0  0  0  0  0  0
   -1.7820   18.5230   -4.4450 O   0  0  0  0  0  0  0  0  0  0  0  0
   -2.2060   17.5800   -6.7550 O   0  0  0  0  0  0  0  0  0  0  0  0
   -0.0500   19.9370   -7.7020 P   0  0  0  0  0  0  0  0  0  0  0  0
   -1.4480   20.5560   -8.1470 O   0  0  0  0  0  0  0  0  0  0  0  0
    1.0920   20.8950   -7.6970 O   0  0  0  0  0  0  0  0  0  0  0  0
    0.0700   18.7110   -8.7330 O   0  0  0  0  0  0  0  0  0  0  0  0
  2  1  1  6
  2  3  1  0
  2  4  1  0
  4  5  1  1
  3  6  1  0
  4  7  1  0
  6  7  1  0
  7  8  1  6
  8  9  1  0
  9 10  1  0
  9 11  2  0
  9 12  1  6
 10 13  1  0
 13 14  1  0
 13 15  2  0
 13 16  1  0
M  END
>  <comRMSD>  (206) 
0.528405

>  <∆∆G>  (206) 
-10.508235

>  <N_constrained_atoms>  (206) 
16.0

>  <LE>  (206) 
-0.656765

>  <ref_pdb>  (206) 
x0104_0

>  <ref_mols>  (206) 


>  <%Rank>  (206) 
3.517502

>  <generation_date>  (206) 
nan

>  <method>  (206) 
nan

>  <submitter_email>  (206) 
nan

>  <original SMILES>  (206) 
O=P(O)(O)OP(=O)(O)CC1OCC(O)C1O

>  <ref_url>  (206) 
nan

>  <submitter_name>  (206) 
nan

>  <submitter_institution>  (206) 
nan

$$$$
x1015_0_A_α-x0711_0_A_α
     RDKit          3D

 27 29  0  0  0  0  0  0  0  0999 V2000
   -1.1790   14.3780   -3.9040 C   0  0  1  0  0  0  0  0  0  0  0  0
   -1.5730   14.9430   -2.5960 N   0  0  0  0  0  0  0  0  0  0  0  0
   -2.7490   14.8540   -1.8410 C   0  0  0  0  0  0  0  0  0  0  0  0
   -2.3180   13.4930   -4.4340 C   0  0  0  0  0  0  0  0  0  0  0  0
   -1.0240   15.4720   -4.7730 O   0  0  0  0  0  0  0  0  0  0  0  0
    0.1620   13.6100   -3.8420 C   0  0  2  0  0  0  0  0  0  0  0  0
    0.0460   12.1470   -3.8690 N   0  0  0  0  0  0  0  0  0  0  0  0
    0.7010   13.8110   -2.4390 C   0  0  0  0  0  0  0  0  0  0  0  0
    1.1090   14.8570   -1.9610 O   0  0  0  0  0  0  0  0  0  0  0  0
    0.3310   11.6080   -2.6110 C   0  0  0  0  0  0  0  0  0  0  0  0
    0.6500   12.6330   -1.7740 N   0  0  0  0  0  0  0  0  0  0  0  0
   -0.3960   11.3920   -4.9860 C   0  0  0  0  0  0  0  0  0  0  0  0
   -3.9800   15.1260   -2.4640 C   0  0  0  0  0  0  0  0  0  0  0  0
   -2.7900   14.5120   -0.4800 C   0  0  0  0  0  0  0  0  0  0  0  0
    0.3180   10.4310   -2.2660 O   0  0  0  0  0  0  0  0  0  0  0  0
    0.1380   11.6060   -6.2640 C   0  0  0  0  0  0  0  0  0  0  0  0
   -1.3830   10.4030   -4.8450 C   0  0  0  0  0  0  0  0  0  0  0  0
   -5.1950   15.0590   -1.7650 C   0  0  0  0  0  0  0  0  0  0  0  0
   -3.9980   14.4410    0.2290 C   0  0  0  0  0  0  0  0  0  0  0  0
   -0.2970   10.8580   -7.3650 C   0  0  0  0  0  0  0  0  0  0  0  0
   -1.8210    9.6530   -5.9410 C   0  0  0  0  0  0  0  0  0  0  0  0
   -5.2090   14.7110   -0.4100 C   0  0  0  0  0  0  0  0  0  0  0  0
   -6.4740   14.6210    0.3760 C   0  0  0  0  0  0  0  0  0  0  0  0
   -1.2750    9.8840   -7.1980 C   0  0  0  0  0  0  0  0  0  0  0  0
   -1.8110    8.9620   -8.5470 Cl  0  0  0  0  0  0  0  0  0  0  0  0
   -6.4270   14.7050    1.7450 N   0  0  0  0  0  0  0  0  0  0  0  0
   -7.5550   14.4750   -0.1850 O   0  0  0  0  0  0  0  0  0  0  0  0
  1  2  1  0
  2  3  1  0
  1  4  1  6
  1  5  1  0
  1  6  1  0
  6  7  1  0
  6  8  1  1
  8  9  2  0
  7 10  1  0
  8 11  1  0
 10 11  1  0
  7 12  1  0
  3 13  2  0
  3 14  1  0
 10 15  2  0
 12 16  2  0
 12 17  1  0
 13 18  1  0
 14 19  2  0
 16 20  1  0
 17 21  2  0
 18 22  2  0
 19 22  1  0
 22 23  1  0
 20 24  2  0
 21 24  1  0
 24 25  1  0
 23 26  1  0
 23 27  2  0
M  END
>  <comRMSD>  (207) 
0.518527

>  <∆∆G>  (207) 
-6.652181

>  <N_constrained_atoms>  (207) 
27.0

>  <LE>  (207) 
-0.246377

>  <ref_pdb>  (207) 
x0104_0

>  <ref_mols>  (207) 
x1015_0_A_α,x0711_0_A_α

>  <%Rank>  (207) 
3.53466

>  <generation_date>  (207) 
nan

>  <method>  (207) 
nan

>  <submitter_email>  (207) 
nan

>  <original SMILES>  (207) 
CC(O)(Nc1ccc(C(N)=O)cc1)C1C(=O)NC(=O)N1c1ccc(Cl)cc1

>  <ref_url>  (207) 
nan

>  <submitter_name>  (207) 
nan

>  <submitter_institution>  (207) 
nan

$$$$
x0628_0_A_α-x0969_0_A_α
     RDKit          3D

 24 26  0  0  0  0  0  0  0  0999 V2000
   -0.9190    9.0430   -7.0940 C   0  0  0  0  0  0  0  0  0  0  0  0
   -0.9400   10.2910   -6.3060 C   0  0  0  0  0  0  0  0  0  0  0  0
   -1.9880   10.6580   -5.5040 N   0  0  0  0  0  0  0  0  0  0  0  0
    0.0690   11.1580   -6.3210 N   0  0  0  0  0  0  0  0  0  0  0  0
   -0.3630   12.1170   -5.4840 N   0  0  0  0  0  0  0  0  0  0  0  0
   -1.6150   11.8210   -4.9860 C   0  0  0  0  0  0  0  0  0  0  0  0
   -2.4320   12.6500   -4.0310 C   0  0  0  0  0  0  0  0  0  0  0  0
    0.5020   13.2520   -5.2480 C   0  0  0  0  0  0  0  0  0  0  0  0
    1.6640   12.9700   -4.3140 C   0  0  0  0  0  0  0  0  0  0  0  0
   -1.6950   13.2770   -2.8270 C   0  0  0  0  0  0  0  0  0  0  0  0
    1.2250   12.2910   -3.0410 C   0  0  0  0  0  0  0  0  0  0  0  0
   -2.1560   14.6930   -2.3630 C   0  0  0  0  0  0  0  0  0  0  0  0
    0.5400   11.2860   -2.9420 O   0  0  0  0  0  0  0  0  0  0  0  0
    1.6780   12.9550   -1.9700 O   0  0  0  0  0  0  0  0  0  0  0  0
   -3.2960   14.7600   -1.3610 C   0  0  0  0  0  0  0  0  0  0  0  0
   -4.5880   14.6990   -1.7470 C   0  0  0  0  0  0  0  0  0  0  0  0
   -2.9690   14.8840    0.0740 C   0  0  0  0  0  0  0  0  0  0  0  0
   -5.6310   14.7140   -0.7850 C   0  0  0  0  0  0  0  0  0  0  0  0
   -3.9620   14.9080    0.9890 C   0  0  0  0  0  0  0  0  0  0  0  0
   -6.9380   14.6360   -0.9050 N   0  0  0  0  0  0  0  0  0  0  0  0
   -5.2820   14.8080    0.5530 N   0  0  0  0  0  0  0  0  0  0  0  0
   -6.4940   14.7730    1.2310 C   0  0  0  0  0  0  0  0  0  0  0  0
   -7.4760   14.6720    0.3590 N   0  0  0  0  0  0  0  0  0  0  0  0
   -6.6260   14.8410    2.5730 N   0  0  0  0  0  0  0  0  0  0  0  0
  1  2  1  0
  2  3  1  0
  2  4  2  0
  4  5  1  0
  3  6  2  0
  5  6  1  0
  6  7  1  0
  5  8  1  0
  8  9  1  0
  7 10  1  0
  9 11  1  0
 10 12  1  0
 11 13  2  0
 11 14  1  0
 12 15  1  0
 15 16  2  0
 15 17  1  0
 16 18  1  0
 17 19  2  0
 18 20  2  0
 18 21  1  0
 19 21  1  0
 21 22  1  0
 20 23  1  0
 22 23  2  0
 22 24  1  0
M  END
>  <comRMSD>  (208) 
0.273782

>  <∆∆G>  (208) 
-8.663112

>  <N_constrained_atoms>  (208) 
22.0

>  <LE>  (208) 
-0.360963

>  <ref_pdb>  (208) 
x0104_0

>  <ref_mols>  (208) 
x0628_0_A_α,x0969_0_A_α

>  <%Rank>  (208) 
3.551819

>  <generation_date>  (208) 
nan

>  <method>  (208) 
nan

>  <submitter_email>  (208) 
nan

>  <original SMILES>  (208) 
Cc1nc(CCCc2ccn3c(N)nnc3c2)n(CCC(=O)O)n1

>  <ref_url>  (208) 
nan

>  <submitter_name>  (208) 
nan

>  <submitter_institution>  (208) 
nan

$$$$
x0626_0_A_α-x1012_0_A_α
     RDKit          3D

 25 26  0  0  0  0  0  0  0  0999 V2000
   -5.1480   14.8800    1.4650 N   0  0  0  0  0  0  0  0  0  0  0  0
   -6.3030   14.6650    0.7900 C   0  0  0  0  0  0  0  0  0  0  0  0
   -6.3050   14.7800   -0.4420 O   0  0  0  0  0  0  0  0  0  0  0  0
   -3.9200   14.8940    0.9230 C   0  0  0  0  0  0  0  0  0  0  0  0
   -7.5490   14.3030    1.5650 C   0  0  0  0  0  0  0  0  0  0  0  0
   -2.7720   14.8510    1.5390 N   0  0  0  0  0  0  0  0  0  0  0  0
   -3.9040   14.9660   -0.7830 S   0  0  0  0  0  0  0  0  0  0  0  0
   -8.8110   14.7080    0.8260 C   0  0  0  0  0  0  0  0  0  0  0  0
   -2.2060   14.9330   -0.7120 C   0  0  0  0  0  0  0  0  0  0  0  0
   -1.7950   14.8820    0.6010 C   0  0  0  0  0  0  0  0  0  0  0  0
   -0.4130   14.8410    1.0260 C   0  0  0  0  0  0  0  0  0  0  0  0
    0.0880   13.6160    0.4030 C   0  0  0  0  0  0  0  0  0  0  0  0
    0.7760   13.8090   -0.9270 C   0  0  0  0  0  0  0  0  0  0  0  0
    0.6830   12.4870   -1.4950 N   0  0  0  0  0  0  0  0  0  0  0  0
    0.4140   12.3280   -2.7180 C   0  0  0  0  0  0  0  0  0  0  0  0
    0.3560   11.0450   -3.0850 O   0  0  0  0  0  0  0  0  0  0  0  0
    0.1370   13.3400   -3.8070 C   0  0  0  0  0  0  0  0  0  0  0  0
   -1.3460   13.7150   -3.7350 C   0  0  0  0  0  0  0  0  0  0  0  0
    1.0500   14.5830   -3.7490 C   0  0  0  0  0  0  0  0  0  0  0  0
   -1.7100   14.7610   -4.7730 C   0  0  0  0  0  0  0  0  0  0  0  0
    0.6550   15.6280   -4.7900 C   0  0  0  0  0  0  0  0  0  0  0  0
   -0.7920   15.9010   -4.7900 N   0  0  0  0  0  0  0  0  0  0  0  0
   -1.2190   17.2060   -4.7160 C   0  0  0  0  0  0  0  0  0  0  0  0
   -0.2760   18.1700   -4.6850 N   0  0  0  0  0  0  0  0  0  0  0  0
   -2.3940   17.5400   -4.6800 O   0  0  0  0  0  0  0  0  0  0  0  0
  1  2  1  0
  2  3  2  0
  1  4  1  0
  2  5  1  0
  4  6  2  0
  4  7  1  0
  5  8  1  0
  7  9  1  0
  6 10  1  0
  9 10  2  0
 10 11  1  0
 11 12  1  0
 12 13  1  0
 13 14  1  0
 14 15  2  3
 15 16  1  0
 15 17  1  0
 17 18  1  0
 17 19  1  0
 18 20  1  0
 19 21  1  0
 20 22  1  0
 21 22  1  0
 22 23  1  0
 23 24  1  0
 23 25  2  0
M  END
>  <comRMSD>  (209) 
0.323129

>  <∆∆G>  (209) 
-10.165047

>  <N_constrained_atoms>  (209) 
23.0

>  <LE>  (209) 
-0.406602

>  <ref_pdb>  (209) 
x0104_0

>  <ref_mols>  (209) 
x0626_0_A_α,x1012_0_A_α

>  <%Rank>  (209) 
3.568977

>  <generation_date>  (209) 
nan

>  <method>  (209) 
nan

>  <submitter_email>  (209) 
nan

>  <original SMILES>  (209) 
CCC(=O)Nc1nc(CCCN=C(O)C2CCN(C(N)=O)CC2)cs1

>  <ref_url>  (209) 
nan

>  <submitter_name>  (209) 
nan

>  <submitter_institution>  (209) 
nan

$$$$
6WOJ_0_A_β-2FAV_0_B_β
     RDKit          3D

  9  8  0  0  0  0  0  0  0  0999 V2000
   -1.6410   20.5750   -7.7340 O   0  0  0  0  0  0  0  0  0  0  0  0
   -0.1520   19.9660   -7.8700 P   0  0  0  0  0  0  0  0  0  0  0  0
   -0.0810   19.0690   -6.6650 O   0  0  0  0  0  0  0  0  0  0  0  0
    1.1760   20.8560   -7.4380 O   0  0  0  0  0  0  0  0  0  0  0  0
    0.0760   18.6140   -8.8320 O   0  0  0  0  0  0  0  0  0  0  0  0
   -1.3570   18.3990   -5.8990 P   0  0  0  0  0  0  0  0  0  0  0  0
   -0.5700   17.1490   -5.5200 O   0  0  0  0  0  0  0  0  0  0  0  0
   -1.6200   18.7490   -4.3470 O   0  0  0  0  0  0  0  0  0  0  0  0
   -2.5360   17.5940   -6.7550 O   0  0  0  0  0  0  0  0  0  0  0  0
  1  2  1  0
  2  3  1  0
  2  4  1  0
  2  5  1  0
  3  6  1  0
  6  7  1  0
  6  8  1  0
  6  9  1  0
M  CHG  2   4  -1   8  -1
M  END
>  <comRMSD>  (210) 
0.390685

>  <∆∆G>  (210) 
-7.018322

>  <N_constrained_atoms>  (210) 
9.0

>  <LE>  (210) 
-0.779814

>  <ref_pdb>  (210) 
x0104_0

>  <ref_mols>  (210) 


>  <%Rank>  (210) 
3.586136

>  <generation_date>  (210) 
nan

>  <method>  (210) 
nan

>  <submitter_email>  (210) 
nan

>  <original SMILES>  (210) 
[O-][PH](O)(O)O[PH]([O-])(O)O

>  <ref_url>  (210) 
nan

>  <submitter_name>  (210) 
nan

>  <submitter_institution>  (210) 
nan

$$$$
x0722_0_A_α-5CMS_0_P_γ
     RDKit          3D

 20 21  0  0  0  0  0  0  0  0999 V2000
   -4.7160   15.4520    1.8960 C   0  0  0  0  0  0  0  0  0  0  0  0
   -3.5200   15.0510    1.1540 C   0  0  0  0  0  0  0  0  0  0  0  0
   -2.3970   14.8130    1.8040 N   0  0  0  0  0  0  0  0  0  0  0  0
   -3.3930   14.8700   -0.2450 C   0  0  0  0  0  0  0  0  0  0  0  0
   -4.4960   15.0800   -1.2480 C   0  0  0  0  0  0  0  0  0  0  0  0
   -2.0570   14.4690   -0.4140 C   0  0  0  0  0  0  0  0  0  0  0  0
   -1.5310   14.4690    0.8610 N   0  0  0  0  0  0  0  0  0  0  0  0
   -0.1880   14.1460    1.2640 C   0  0  0  0  0  0  0  0  0  0  0  0
   -1.1850   14.0760   -1.5930 C   0  0  0  0  0  0  0  0  0  0  0  0
   -5.8620   14.6410   -0.7250 C   0  0  0  0  0  0  0  0  0  0  0  0
   -6.8870   15.3080   -0.8420 O   0  0  0  0  0  0  0  0  0  0  0  0
   -5.9000   13.4280   -0.0960 N   0  0  0  0  0  0  0  0  0  0  0  0
   -1.4710   14.6780   -2.9820 C   0  0  1  0  0  0  0  0  0  0  0  0
   -0.3950   15.6040   -3.2790 O   0  0  0  0  0  0  0  0  0  0  0  0
   -1.5090   13.6910   -4.1900 C   0  0  2  0  0  0  0  0  0  0  0  0
   -1.3050   12.3310   -3.7880 O   0  0  0  0  0  0  0  0  0  0  0  0
   -0.3040   15.6030   -4.7060 C   0  0  2  0  0  0  0  0  0  0  0  0
   -0.3210   14.1130   -5.0570 C   0  0  1  0  0  0  0  0  0  0  0  0
    0.8620   16.4540   -5.1620 C   0  0  0  0  0  0  0  0  0  0  0  0
    0.8460   13.3800   -4.6630 O   0  0  0  0  0  0  0  0  0  0  0  0
  1  2  1  0
  2  3  2  0
  2  4  1  0
  4  5  1  0
  4  6  2  0
  3  7  1  0
  6  7  1  0
  7  8  1  0
  6  9  1  0
  5 10  1  0
 10 11  2  0
 10 12  1  0
 13  9  1  1
 13 14  1  0
 13 15  1  0
 15 16  1  1
 14 17  1  0
 15 18  1  0
 17 18  1  0
 17 19  1  1
 18 20  1  1
M  END
>  <comRMSD>  (211) 
0.48166

>  <∆∆G>  (211) 
-7.853961

>  <N_constrained_atoms>  (211) 
20.0

>  <LE>  (211) 
-0.392698

>  <ref_pdb>  (211) 
x0104_0

>  <ref_mols>  (211) 
x0722_0_A_α

>  <%Rank>  (211) 
3.603294

>  <generation_date>  (211) 
nan

>  <method>  (211) 
nan

>  <submitter_email>  (211) 
nan

>  <original SMILES>  (211) 
Cc1nn(C)c(CC2OC(C)C(O)C2O)c1CC(N)=O

>  <ref_url>  (211) 
nan

>  <submitter_name>  (211) 
nan

>  <submitter_institution>  (211) 
nan

$$$$
x0471_0_A_α-x0727_0_A_α
     RDKit          3D

 32 34  0  0  0  0  0  0  0  0999 V2000
   -8.7600   14.1340    2.8210 N   0  0  0  0  0  0  0  0  0  0  0  0
   -9.1460   15.1550    3.6650 C   0  0  0  0  0  0  0  0  0  0  0  0
   -9.4170   16.2640    3.2140 O   0  0  0  0  0  0  0  0  0  0  0  0
   -8.7650   14.3270    1.3760 C   0  0  0  0  0  0  0  0  0  0  0  0
   -9.2570   14.8330    5.1590 C   0  0  0  0  0  0  0  0  0  0  0  0
   -7.3760   14.5650    0.8720 C   0  0  0  0  0  0  0  0  0  0  0  0
   -9.5900   13.3670    5.4150 C   0  0  0  0  0  0  0  0  0  0  0  0
   -8.0040   15.2540    5.9220 C   0  0  0  0  0  0  0  0  0  0  0  0
   -7.1120   14.9170   -0.4390 N   0  0  0  0  0  0  0  0  0  0  0  0
   -6.2570   14.4800    1.5560 N   0  0  0  0  0  0  0  0  0  0  0  0
   -5.2410   14.7780    0.6800 C   0  0  0  0  0  0  0  0  0  0  0  0
   -5.7470   15.0590   -0.5800 C   0  0  0  0  0  0  0  0  0  0  0  0
   -4.9440   15.3940   -1.6660 C   0  0  0  0  0  0  0  0  0  0  0  0
   -3.8440   14.8240    0.8920 C   0  0  0  0  0  0  0  0  0  0  0  0
   -3.5550   15.4350   -1.4420 C   0  0  0  0  0  0  0  0  0  0  0  0
   -2.9930   15.1510   -0.1840 C   0  0  0  0  0  0  0  0  0  0  0  0
   -1.4810   15.1850    0.0210 C   0  0  0  0  0  0  0  0  0  0  0  0
   -0.6550   14.7740   -1.2320 C   0  0  0  0  0  0  0  0  0  0  0  0
   -0.0640   13.3500   -1.1910 C   0  0  0  0  0  0  0  0  0  0  0  0
    0.8420   13.0960   -2.3020 O   0  0  0  0  0  0  0  0  0  0  0  0
    0.5730   12.0320   -3.1320 C   0  0  0  0  0  0  0  0  0  0  0  0
    0.8770   12.3780   -4.6040 C   0  0  1  0  0  0  0  0  0  0  0  0
    0.1540   10.9360   -2.7570 O   0  0  0  0  0  0  0  0  0  0  0  0
    0.1690   11.4550   -5.5060 N   0  0  0  0  0  0  0  0  0  0  0  0
    0.4790   13.8130   -4.9120 C   0  0  0  0  0  0  0  0  0  0  0  0
    0.7230   11.1380   -6.7250 C   0  0  0  0  0  0  0  0  0  0  0  0
    1.6670   11.7420   -7.1630 O   0  0  0  0  0  0  0  0  0  0  0  0
    0.0740    9.9670   -7.4580 C   0  0  0  0  0  0  0  0  0  0  0  0
   -1.2340   10.3260   -8.1620 C   0  0  0  0  0  0  0  0  0  0  0  0
   -0.2510    8.7860   -6.5240 C   0  0  0  0  0  0  0  0  0  0  0  0
   -2.1030    9.0860   -8.0230 C   0  0  0  0  0  0  0  0  0  0  0  0
   -1.7460    8.5460   -6.6520 C   0  0  0  0  0  0  0  0  0  0  0  0
  1  2  1  0
  2  3  2  0
  1  4  1  0
  2  5  1  0
  4  6  1  0
  5  7  1  0
  5  8  1  0
  6  9  1  0
  6 10  2  0
 10 11  1  0
  9 12  1  0
 11 12  2  0
 12 13  1  0
 11 14  1  0
 13 15  2  0
 14 16  2  0
 15 16  1  0
 16 17  1  0
 17 18  1  0
 18 19  1  0
 19 20  1  0
 20 21  1  0
 21 22  1  0
 21 23  2  0
 22 24  1  0
 22 25  1  6
 24 26  1  0
 26 27  2  0
 26 28  1  0
 28 29  1  0
 28 30  1  0
 29 31  1  0
 30 32  1  0
 31 32  1  0
M  END
>  <comRMSD>  (212) 
0.336032

>  <∆∆G>  (212) 
-10.979387

>  <N_constrained_atoms>  (212) 
29.0

>  <LE>  (212) 
-0.343106

>  <ref_pdb>  (212) 
x0104_0

>  <ref_mols>  (212) 
x0471_0_A_α,x0727_0_A_α

>  <%Rank>  (212) 
3.620453

>  <generation_date>  (212) 
nan

>  <method>  (212) 
nan

>  <submitter_email>  (212) 
nan

>  <original SMILES>  (212) 
CC(C)C(=O)NCc1nc2cc(CCCOC(=O)[C@H](C)NC(=O)C3CCCC3)ccc2[nH]1

>  <ref_url>  (212) 
nan

>  <submitter_name>  (212) 
nan

>  <submitter_institution>  (212) 
nan

$$$$
x0852_0_B_α-x0711_0_A_α
     RDKit          3D

 26 27  0  0  0  0  0  0  0  0999 V2000
   -9.7450   17.8670    7.1220 N   0  0  0  0  0  0  0  0  0  0  0  0
   -9.4800   17.3250    6.1270 C   0  0  0  0  0  0  0  0  0  0  0  0
   -9.1890   16.5750    4.9470 C   0  0  0  0  0  0  0  0  0  0  0  0
   -8.2760   15.5130    4.9800 C   0  0  0  0  0  0  0  0  0  0  0  0
   -9.8290   16.8990    3.7310 C   0  0  0  0  0  0  0  0  0  0  0  0
   -7.5860   15.1030    6.0930 O   0  0  0  0  0  0  0  0  0  0  0  0
   -8.0160   14.7890    3.8310 C   0  0  0  0  0  0  0  0  0  0  0  0
   -9.5580   16.1630    2.5660 C   0  0  0  0  0  0  0  0  0  0  0  0
  -10.2090   16.5370    1.4150 O   0  0  0  0  0  0  0  0  0  0  0  0
   -8.6540   15.1120    2.6400 C   0  0  0  0  0  0  0  0  0  0  0  0
   -9.6110   16.1310    0.1650 C   0  0  0  0  0  0  0  0  0  0  0  0
   -8.9410   14.7350    0.2430 C   0  0  0  0  0  0  0  0  0  0  0  0
   -7.6080   14.7700   -0.3820 N   0  0  0  0  0  0  0  0  0  0  0  0
   -6.4800   14.6860    0.2730 C   0  0  0  0  0  0  0  0  0  0  0  0
   -6.5260   14.5570    1.6420 N   0  0  0  0  0  0  0  0  0  0  0  0
   -5.1620   14.7530   -0.4070 C   0  0  0  0  0  0  0  0  0  0  0  0
   -5.1630   15.1000   -1.7570 C   0  0  0  0  0  0  0  0  0  0  0  0
   -3.9600   14.4870    0.2620 C   0  0  0  0  0  0  0  0  0  0  0  0
   -3.9620   15.1920   -2.4540 C   0  0  0  0  0  0  0  0  0  0  0  0
   -2.7490   14.5810   -0.4450 C   0  0  0  0  0  0  0  0  0  0  0  0
   -2.7580   14.9380   -1.8010 C   0  0  0  0  0  0  0  0  0  0  0  0
   -1.5420   15.0730   -2.5540 N   0  0  0  0  0  0  0  0  0  0  0  0
   -0.5640   13.7970   -3.0700 S   0  0  0  0  0  0  0  0  0  0  0  0
   -1.7340   12.7620   -3.9100 C   0  0  0  0  0  0  0  0  0  0  0  0
    0.3800   14.3090   -4.0400 O   0  0  0  0  0  0  0  0  0  0  0  0
   -0.1160   13.1260   -1.8690 O   0  0  0  0  0  0  0  0  0  0  0  0
  1  2  3  0
  2  3  1  0
  3  4  2  0
  3  5  1  0
  4  6  1  0
  4  7  1  0
  5  8  2  0
  8  9  1  0
  7 10  2  0
  8 10  1  0
  9 11  1  0
 11 12  1  0
 12 13  1  0
 13 14  2  3
 14 15  1  0
 14 16  1  0
 16 17  2  0
 16 18  1  0
 17 19  1  0
 18 20  2  0
 19 21  2  0
 20 21  1  0
 21 22  1  0
 23 22  1  0
 23 24  1  0
 23 25  2  0
 23 26  2  0
M  END
>  <comRMSD>  (213) 
0.283434

>  <∆∆G>  (213) 
-7.170446

>  <N_constrained_atoms>  (213) 
24.0

>  <LE>  (213) 
-0.275786

>  <ref_pdb>  (213) 
x0104_0

>  <ref_mols>  (213) 
x0852_0_B_α,x0711_0_A_α

>  <%Rank>  (213) 
3.637612

>  <generation_date>  (213) 
nan

>  <method>  (213) 
nan

>  <submitter_email>  (213) 
nan

>  <original SMILES>  (213) 
CS(=O)(=O)Nc1ccc(C(N)=NCCOc2ccc(O)c(C#N)c2)cc1

>  <ref_url>  (213) 
nan

>  <submitter_name>  (213) 
nan

>  <submitter_institution>  (213) 
nan

$$$$
x0128_0_A_α-x0685_0_A_α
     RDKit          3D

 19 20  0  0  0  0  0  0  0  0999 V2000
   -6.4880   14.9470    2.5330 N   0  0  0  0  0  0  0  0  0  0  0  0
   -7.7770   14.8590    3.1430 C   0  0  2  0  0  0  0  0  0  0  0  0
   -8.7000   15.6150    2.4160 O   0  0  0  0  0  0  0  0  0  0  0  0
   -6.0190   14.9470    1.2230 C   0  0  0  0  0  0  0  0  0  0  0  0
   -7.5170   15.4800    4.4380 N   0  0  0  0  0  0  0  0  0  0  0  0
   -8.1740   13.3970    3.2890 C   0  0  0  0  0  0  0  0  0  0  0  0
   -6.7370   14.7440    0.0380 C   0  0  0  0  0  0  0  0  0  0  0  0
   -4.6440   15.2000    1.1150 C   0  0  0  0  0  0  0  0  0  0  0  0
   -6.0880   14.8000   -1.2120 C   0  0  0  0  0  0  0  0  0  0  0  0
   -3.9980   15.2540   -0.1090 C   0  0  0  0  0  0  0  0  0  0  0  0
   -8.3870   16.1310    5.3230 C   0  0  0  0  0  0  0  0  0  0  0  0
   -4.7090   15.0560   -1.2780 C   0  0  0  0  0  0  0  0  0  0  0  0
   -9.0990   17.2660    4.9050 C   0  0  0  0  0  0  0  0  0  0  0  0
   -8.6210   15.7470    6.6410 C   0  0  0  0  0  0  0  0  0  0  0  0
   -3.9920   15.1230   -2.5160 C   0  0  0  0  0  0  0  0  0  0  0  0
   -9.9640   17.9870    5.6610 N   0  0  0  0  0  0  0  0  0  0  0  0
   -9.5060   16.4670    7.4550 C   0  0  0  0  0  0  0  0  0  0  0  0
   -3.3850   15.1810   -3.5050 N   0  0  0  0  0  0  0  0  0  0  0  0
  -10.1450   17.5700    6.9220 C   0  0  0  0  0  0  0  0  0  0  0  0
  1  2  1  0
  2  3  1  0
  1  4  1  0
  2  5  1  0
  2  6  1  1
  4  7  2  0
  4  8  1  0
  7  9  1  0
  8 10  2  0
  5 11  1  0
  9 12  2  0
 10 12  1  0
 11 13  2  0
 11 14  1  0
 12 15  1  0
 13 16  1  0
 14 17  2  0
 15 18  3  0
 16 19  2  0
 17 19  1  0
M  END
>  <comRMSD>  (214) 
0.448606

>  <∆∆G>  (214) 
-6.886433

>  <N_constrained_atoms>  (214) 
19.0

>  <LE>  (214) 
-0.362444

>  <ref_pdb>  (214) 
x0104_0

>  <ref_mols>  (214) 
x0128_0_A_α,x0685_0_A_α

>  <%Rank>  (214) 
3.65477

>  <generation_date>  (214) 
nan

>  <method>  (214) 
nan

>  <submitter_email>  (214) 
nan

>  <original SMILES>  (214) 
CC(O)(Nc1ccc(C#N)cc1)Nc1cccnc1

>  <ref_url>  (214) 
nan

>  <submitter_name>  (214) 
nan

>  <submitter_institution>  (214) 
nan

$$$$
x0465_0_A_α-x0592_0_A_α
     RDKit          3D

 27 28  0  0  0  0  0  0  0  0999 V2000
    2.1060   13.2230   -4.7010 C   0  0  0  0  0  0  0  0  0  0  0  0
    0.7590   12.5420   -4.4930 C   0  0  1  0  0  0  0  0  0  0  0  0
    0.6610   11.4770   -5.4510 O   0  0  0  0  0  0  0  0  0  0  0  0
    0.6900   11.9360   -3.0800 C   0  0  0  0  0  0  0  0  0  0  0  0
    0.9100   12.5950   -1.9900 N   0  0  0  0  0  0  0  0  0  0  0  0
    0.3630   10.6210   -3.0790 O   0  0  0  0  0  0  0  0  0  0  0  0
   -0.5040   10.7820   -5.6760 C   0  0  0  0  0  0  0  0  0  0  0  0
    1.2650   14.0030   -1.9540 C   0  0  0  0  0  0  0  0  0  0  0  0
   -0.6620    9.7330   -6.5920 C   0  0  0  0  0  0  0  0  0  0  0  0
   -1.6100   11.1730   -4.9140 C   0  0  0  0  0  0  0  0  0  0  0  0
    0.3540    9.3110   -7.3570 F   0  0  0  0  0  0  0  0  0  0  0  0
   -0.0080   14.8420   -1.8400 C   0  0  0  0  0  0  0  0  0  0  0  0
   -1.8870    9.0860   -6.7440 C   0  0  0  0  0  0  0  0  0  0  0  0
   -2.8440   10.5250   -5.0640 C   0  0  0  0  0  0  0  0  0  0  0  0
   -0.8270   14.5540   -0.5720 C   0  0  0  0  0  0  0  0  0  0  0  0
   -2.9840    9.4790   -5.9800 C   0  0  0  0  0  0  0  0  0  0  0  0
   -2.2700   14.6490   -0.8420 N   0  0  0  0  0  0  0  0  0  0  0  0
   -3.1810   14.7080    0.0770 C   0  0  0  0  0  0  0  0  0  0  0  0
   -2.8180   14.6850    1.3950 N   0  0  0  0  0  0  0  0  0  0  0  0
   -4.6150   14.7920   -0.1050 C   0  0  0  0  0  0  0  0  0  0  0  0
   -5.3530   15.1860   -1.2590 C   0  0  0  0  0  0  0  0  0  0  0  0
   -5.5960   14.5010    0.8140 C   0  0  0  0  0  0  0  0  0  0  0  0
   -6.6800   15.1390   -1.0660 N   0  0  0  0  0  0  0  0  0  0  0  0
   -6.7940   14.7190    0.2080 N   0  0  0  0  0  0  0  0  0  0  0  0
   -8.0920   14.5320    0.8340 C   0  0  0  0  0  0  0  0  0  0  0  0
   -7.9480   14.0960    2.2920 C   0  0  0  0  0  0  0  0  0  0  0  0
   -7.1850   15.0440    3.0360 O   0  0  0  0  0  0  0  0  0  0  0  0
  2  1  1  1
  2  3  1  0
  2  4  1  0
  4  5  2  3
  4  6  1  0
  3  7  1  0
  5  8  1  0
  7  9  2  0
  7 10  1  0
  9 11  1  0
  8 12  1  0
  9 13  1  0
 10 14  2  0
 12 15  1  0
 13 16  2  0
 14 16  1  0
 15 17  1  0
 17 18  2  3
 18 19  1  0
 18 20  1  0
 20 21  1  0
 20 22  2  0
 21 23  2  0
 22 24  1  0
 23 24  1  0
 24 25  1  0
 25 26  1  0
 26 27  1  0
M  END
>  <comRMSD>  (215) 
0.219665

>  <∆∆G>  (215) 
-9.495886

>  <N_constrained_atoms>  (215) 
24.0

>  <LE>  (215) 
-0.351699

>  <ref_pdb>  (215) 
x0104_0

>  <ref_mols>  (215) 
x0465_0_A_α,x0592_0_A_α

>  <%Rank>  (215) 
3.671929

>  <generation_date>  (215) 
nan

>  <method>  (215) 
nan

>  <submitter_email>  (215) 
nan

>  <original SMILES>  (215) 
C[C@@H](Oc1ccccc1F)C(O)=NCCCN=C(N)c1cnn(CCO)c1

>  <ref_url>  (215) 
nan

>  <submitter_name>  (215) 
nan

>  <submitter_institution>  (215) 
nan

$$$$
x0727_0_A_α-5DUS_0_A_γ
     RDKit          3D

 20 21  0  0  0  0  0  0  0  0999 V2000
    0.0990   11.4300   -5.6240 N   0  0  0  0  0  0  0  0  0  0  0  0
    0.9490   12.2470   -4.7560 C   0  0  1  0  0  0  0  0  0  0  0  0
    0.9850   13.7020   -5.2240 C   0  0  0  0  0  0  0  0  0  0  0  0
    0.6720   11.0760   -6.8220 C   0  0  0  0  0  0  0  0  0  0  0  0
    1.6320   11.6700   -7.2350 O   0  0  0  0  0  0  0  0  0  0  0  0
    0.6560   11.9510   -3.2790 C   0  0  0  0  0  0  0  0  0  0  0  0
    0.0440    9.8950   -7.5460 C   0  0  0  0  0  0  0  0  0  0  0  0
   -0.0970   11.0860   -2.8510 O   0  0  0  0  0  0  0  0  0  0  0  0
    1.3460   12.7340   -2.4230 O   0  0  0  0  0  0  0  0  0  0  0  0
   -1.2830   10.2570   -8.2160 C   0  0  0  0  0  0  0  0  0  0  0  0
   -0.2640    8.7350   -6.5820 C   0  0  0  0  0  0  0  0  0  0  0  0
   -0.0890   14.7470   -4.8730 C   0  0  2  0  0  0  0  0  0  0  0  0
   -2.1580    9.0300   -8.0390 C   0  0  0  0  0  0  0  0  0  0  0  0
   -1.7610    8.4950   -6.6700 C   0  0  0  0  0  0  0  0  0  0  0  0
    0.6410   15.8410   -4.0870 C   0  0  1  0  0  0  0  0  0  0  0  0
   -1.2530   14.3590   -3.9680 C   0  0  1  0  0  0  0  0  0  0  0  0
   -1.6320   12.9970   -4.1530 O   0  0  0  0  0  0  0  0  0  0  0  0
    0.3940   17.2440   -4.6290 C   0  0  0  0  0  0  0  0  0  0  0  0
   -0.6960   14.6290   -2.5870 C   0  0  0  0  0  0  0  0  0  0  0  0
    0.2030   15.7460   -2.7240 O   0  0  0  0  0  0  0  0  0  0  0  0
  1  2  1  0
  2  3  1  1
  1  4  1  0
  4  5  2  0
  2  6  1  0
  4  7  1  0
  6  8  2  0
  6  9  1  0
  7 10  1  0
  7 11  1  0
 12  3  1  1
 10 13  1  0
 11 14  1  0
 13 14  1  0
 12 15  1  0
 12 16  1  0
 16 17  1  1
 15 18  1  6
 16 19  1  0
 15 20  1  0
 19 20  1  0
M  END
>  <comRMSD>  (216) 
0.345328

>  <∆∆G>  (216) 
-2.287392

>  <N_constrained_atoms>  (216) 
20.0

>  <LE>  (216) 
-0.11437

>  <ref_pdb>  (216) 
x0104_0

>  <ref_mols>  (216) 
x0727_0_A_α

>  <%Rank>  (216) 
3.689087

>  <generation_date>  (216) 
nan

>  <method>  (216) 
nan

>  <submitter_email>  (216) 
nan

>  <original SMILES>  (216) 
CC1OCC(O)C1C[C@H](NC(=O)C1CCCC1)C(=O)O

>  <ref_url>  (216) 
nan

>  <submitter_name>  (216) 
nan

>  <submitter_institution>  (216) 
nan

$$$$
x0628_0_A_α-x0421_0_A_α
     RDKit          3D

 25 27  0  0  0  0  0  0  0  0999 V2000
   -0.8570    8.9420   -7.2800 C   0  0  0  0  0  0  0  0  0  0  0  0
   -0.8310   10.1660   -6.4600 C   0  0  0  0  0  0  0  0  0  0  0  0
   -1.8320   10.4870   -5.5800 N   0  0  0  0  0  0  0  0  0  0  0  0
    0.1680   11.0470   -6.5160 N   0  0  0  0  0  0  0  0  0  0  0  0
   -0.2190   11.9700   -5.6200 N   0  0  0  0  0  0  0  0  0  0  0  0
   -1.4250   11.6320   -5.0580 C   0  0  0  0  0  0  0  0  0  0  0  0
   -2.1470   12.4360   -4.0290 C   0  0  0  0  0  0  0  0  0  0  0  0
    0.6350   13.1230   -5.3900 C   0  0  0  0  0  0  0  0  0  0  0  0
    1.6730   12.9220   -4.2910 C   0  0  0  0  0  0  0  0  0  0  0  0
   -2.1340   13.9300   -4.3580 C   0  0  0  0  0  0  0  0  0  0  0  0
    1.0980   12.2500   -3.0750 C   0  0  0  0  0  0  0  0  0  0  0  0
   -1.2720   14.7710   -3.4120 C   0  0  0  0  0  0  0  0  0  0  0  0
    0.5700   11.1530   -2.9960 O   0  0  0  0  0  0  0  0  0  0  0  0
    1.2290   13.0210   -1.9810 O   0  0  0  0  0  0  0  0  0  0  0  0
   -1.8080   14.7100   -2.0550 N   0  0  0  0  0  0  0  0  0  0  0  0
   -3.0420   14.9940   -1.8840 C   0  0  0  0  0  0  0  0  0  0  0  0
   -3.9970   15.3580   -2.7890 N   0  0  0  0  0  0  0  0  0  0  0  0
   -3.5910   14.9440   -0.5300 C   0  0  0  0  0  0  0  0  0  0  0  0
   -2.9160   15.0380    0.6740 C   0  0  0  0  0  0  0  0  0  0  0  0
   -4.9500   14.7820   -0.3000 N   0  0  0  0  0  0  0  0  0  0  0  0
   -3.8760   14.9310    1.6340 N   0  0  0  0  0  0  0  0  0  0  0  0
   -5.0730   14.7780    1.0050 C   0  0  0  0  0  0  0  0  0  0  0  0
   -6.4160   14.6170    1.7550 C   0  0  0  0  0  0  0  0  0  0  0  0
   -7.7040   14.6610    0.9760 C   0  0  0  0  0  0  0  0  0  0  0  0
   -7.2190   13.3620    1.5540 C   0  0  0  0  0  0  0  0  0  0  0  0
  1  2  1  0
  2  3  1  0
  2  4  2  0
  4  5  1  0
  3  6  2  0
  5  6  1  0
  6  7  1  0
  5  8  1  0
  8  9  1  0
  7 10  1  0
  9 11  1  0
 10 12  1  0
 11 13  2  0
 11 14  1  0
 12 15  1  0
 15 16  2  3
 16 17  1  0
 16 18  1  0
 18 19  2  0
 18 20  1  0
 19 21  1  0
 20 22  2  0
 21 22  1  0
 22 23  1  0
 23 24  1  0
 23 25  1  0
 24 25  1  0
M  END
>  <comRMSD>  (217) 
0.188666

>  <∆∆G>  (217) 
-3.267957

>  <N_constrained_atoms>  (217) 
23.0

>  <LE>  (217) 
-0.130718

>  <ref_pdb>  (217) 
x0104_0

>  <ref_mols>  (217) 
x0628_0_A_α,x0421_0_A_α

>  <%Rank>  (217) 
3.706246

>  <generation_date>  (217) 
nan

>  <method>  (217) 
nan

>  <submitter_email>  (217) 
nan

>  <original SMILES>  (217) 
Cc1nc(CCCN=C(N)c2c[nH]c(C3CC3)n2)n(CCC(=O)O)n1

>  <ref_url>  (217) 
nan

>  <submitter_name>  (217) 
nan

>  <submitter_institution>  (217) 
nan

$$$$
x0969_0_A_α-x0628_0_A_α
     RDKit          3D

 24 26  0  0  0  0  0  0  0  0999 V2000
   -6.6710   14.8580    2.4880 N   0  0  0  0  0  0  0  0  0  0  0  0
   -6.5230   14.7920    1.1500 C   0  0  0  0  0  0  0  0  0  0  0  0
   -7.4980   14.6900    0.2760 N   0  0  0  0  0  0  0  0  0  0  0  0
   -5.3040   14.8300    0.4800 N   0  0  0  0  0  0  0  0  0  0  0  0
   -6.9490   14.6570   -0.9820 N   0  0  0  0  0  0  0  0  0  0  0  0
   -5.6440   14.7350   -0.8570 C   0  0  0  0  0  0  0  0  0  0  0  0
   -3.9830   14.9330    0.9270 C   0  0  0  0  0  0  0  0  0  0  0  0
   -4.5940   14.7210   -1.8110 C   0  0  0  0  0  0  0  0  0  0  0  0
   -2.9860   14.9100    0.0210 C   0  0  0  0  0  0  0  0  0  0  0  0
   -3.3080   14.7830   -1.4110 C   0  0  0  0  0  0  0  0  0  0  0  0
   -2.1610   14.7130   -2.4090 C   0  0  0  0  0  0  0  0  0  0  0  0
   -1.7610   13.2670   -2.8080 C   0  0  0  0  0  0  0  0  0  0  0  0
   -2.4270   12.6470   -4.0550 C   0  0  0  0  0  0  0  0  0  0  0  0
   -1.5930   11.8280   -5.0010 C   0  0  0  0  0  0  0  0  0  0  0  0
   -1.9680   10.6680   -5.5290 N   0  0  0  0  0  0  0  0  0  0  0  0
   -0.3350   12.1210   -5.4820 N   0  0  0  0  0  0  0  0  0  0  0  0
    0.5270   13.2610   -5.2220 C   0  0  0  0  0  0  0  0  0  0  0  0
   -0.9130   10.2980   -6.3210 C   0  0  0  0  0  0  0  0  0  0  0  0
    0.1030   11.1600   -6.3200 N   0  0  0  0  0  0  0  0  0  0  0  0
   -0.8970    9.0490   -7.1070 C   0  0  0  0  0  0  0  0  0  0  0  0
    1.6550   12.9460   -4.2340 C   0  0  0  0  0  0  0  0  0  0  0  0
    1.1460   12.2530   -2.9970 C   0  0  0  0  0  0  0  0  0  0  0  0
    0.6420   11.1400   -2.9590 O   0  0  0  0  0  0  0  0  0  0  0  0
    1.2940   12.9910   -1.8780 O   0  0  0  0  0  0  0  0  0  0  0  0
  1  2  1  0
  2  3  2  0
  2  4  1  0
  3  5  1  0
  4  6  1  0
  5  6  2  0
  4  7  1  0
  6  8  1  0
  7  9  2  0
  8 10  2  0
  9 10  1  0
 10 11  1  0
 11 12  1  0
 12 13  1  0
 13 14  1  0
 14 15  2  0
 14 16  1  0
 16 17  1  0
 15 18  1  0
 16 19  1  0
 18 19  2  0
 18 20  1  0
 17 21  1  0
 21 22  1  0
 22 23  2  0
 22 24  1  0
M  END
>  <comRMSD>  (218) 
0.245414

>  <∆∆G>  (218) 
-7.030035

>  <N_constrained_atoms>  (218) 
22.0

>  <LE>  (218) 
-0.292918

>  <ref_pdb>  (218) 
x0104_0

>  <ref_mols>  (218) 
x0969_0_A_α,x0628_0_A_α

>  <%Rank>  (218) 
3.723404

>  <generation_date>  (218) 
nan

>  <method>  (218) 
nan

>  <submitter_email>  (218) 
nan

>  <original SMILES>  (218) 
Cc1nc(CCCc2ccn3c(N)nnc3c2)n(CCC(=O)O)n1

>  <ref_url>  (218) 
nan

>  <submitter_name>  (218) 
nan

>  <submitter_institution>  (218) 
nan

$$$$
x0727_0_A_α-x0421_0_A_α
     RDKit          3D

 26 28  0  0  0  0  0  0  0  0999 V2000
    0.1820   11.3880   -5.6030 N   0  0  0  0  0  0  0  0  0  0  0  0
    0.9090   12.3470   -4.7720 C   0  0  1  0  0  0  0  0  0  0  0  0
    0.5300   13.7580   -5.1940 C   0  0  0  0  0  0  0  0  0  0  0  0
    0.7170   11.0600   -6.8110 C   0  0  0  0  0  0  0  0  0  0  0  0
    1.6510   11.6720   -7.2450 O   0  0  0  0  0  0  0  0  0  0  0  0
    0.6350   12.0130   -3.2960 C   0  0  0  0  0  0  0  0  0  0  0  0
    0.0800    9.8850   -7.5260 C   0  0  0  0  0  0  0  0  0  0  0  0
    0.0210   11.0090   -2.9350 O   0  0  0  0  0  0  0  0  0  0  0  0
    1.1720   12.9360   -2.4470 O   0  0  0  0  0  0  0  0  0  0  0  0
   -1.2280   10.2870   -8.2090 C   0  0  0  0  0  0  0  0  0  0  0  0
   -0.2590    8.7280   -6.5740 C   0  0  0  0  0  0  0  0  0  0  0  0
    0.7760   14.3190   -2.5970 C   0  0  0  0  0  0  0  0  0  0  0  0
   -2.1580    9.1030   -8.0230 C   0  0  0  0  0  0  0  0  0  0  0  0
   -1.7470    8.4710   -6.7050 C   0  0  0  0  0  0  0  0  0  0  0  0
   -0.7090   14.4330   -2.9850 C   0  0  0  0  0  0  0  0  0  0  0  0
   -1.5330   14.5120   -1.7850 N   0  0  0  0  0  0  0  0  0  0  0  0
   -2.7780   14.8400   -1.7530 C   0  0  0  0  0  0  0  0  0  0  0  0
   -3.4760   15.1580   -2.8890 N   0  0  0  0  0  0  0  0  0  0  0  0
   -3.5460   14.8910   -0.5140 C   0  0  0  0  0  0  0  0  0  0  0  0
   -2.9940   15.1470    0.7260 C   0  0  0  0  0  0  0  0  0  0  0  0
   -4.9110   14.6870   -0.3850 N   0  0  0  0  0  0  0  0  0  0  0  0
   -4.0300   15.0880    1.5950 N   0  0  0  0  0  0  0  0  0  0  0  0
   -5.1520   14.8100    0.9020 C   0  0  0  0  0  0  0  0  0  0  0  0
   -6.5340   14.6560    1.5850 C   0  0  0  0  0  0  0  0  0  0  0  0
   -7.7940   14.6400    0.7650 C   0  0  0  0  0  0  0  0  0  0  0  0
   -7.2820   13.3690    1.3830 C   0  0  0  0  0  0  0  0  0  0  0  0
  1  2  1  0
  2  3  1  6
  1  4  1  0
  4  5  2  0
  2  6  1  0
  4  7  1  0
  6  8  2  0
  6  9  1  0
  7 10  1  0
  7 11  1  0
  9 12  1  0
 10 13  1  0
 11 14  1  0
 13 14  1  0
 12 15  1  0
 15 16  1  0
 16 17  2  3
 17 18  1  0
 17 19  1  0
 19 20  2  0
 19 21  1  0
 20 22  1  0
 21 23  2  0
 22 23  1  0
 23 24  1  0
 24 25  1  0
 24 26  1  0
 25 26  1  0
M  END
>  <comRMSD>  (219) 
0.261414

>  <∆∆G>  (219) 
-5.772293

>  <N_constrained_atoms>  (219) 
24.0

>  <LE>  (219) 
-0.222011

>  <ref_pdb>  (219) 
x0104_0

>  <ref_mols>  (219) 
x0727_0_A_α,x0421_0_A_α

>  <%Rank>  (219) 
3.740563

>  <generation_date>  (219) 
nan

>  <method>  (219) 
nan

>  <submitter_email>  (219) 
nan

>  <original SMILES>  (219) 
C[C@H](NC(=O)C1CCCC1)C(=O)OCCN=C(N)c1c[nH]c(C2CC2)n1

>  <ref_url>  (219) 
nan

>  <submitter_name>  (219) 
nan

>  <submitter_institution>  (219) 
nan

$$$$
x0722_0_A_α-x0855_0_A_α
     RDKit          3D

 24 25  0  0  0  0  0  0  0  0999 V2000
   -4.5180   15.7140    2.1710 C   0  0  0  0  0  0  0  0  0  0  0  0
   -3.4650   15.2350    1.3050 C   0  0  0  0  0  0  0  0  0  0  0  0
   -2.3410   14.9030    1.8900 N   0  0  0  0  0  0  0  0  0  0  0  0
   -3.4330   15.0730   -0.0950 C   0  0  0  0  0  0  0  0  0  0  0  0
   -4.5450   15.3520   -1.0630 C   0  0  0  0  0  0  0  0  0  0  0  0
   -2.1320   14.6140   -0.3210 C   0  0  0  0  0  0  0  0  0  0  0  0
   -1.5450   14.5390    0.9180 N   0  0  0  0  0  0  0  0  0  0  0  0
   -0.2120   14.1340    1.2740 C   0  0  0  0  0  0  0  0  0  0  0  0
   -1.3740   14.2470   -1.5560 C   0  0  0  0  0  0  0  0  0  0  0  0
   -5.8620   14.7140   -0.6510 C   0  0  0  0  0  0  0  0  0  0  0  0
   -6.9630   15.2410   -0.8000 O   0  0  0  0  0  0  0  0  0  0  0  0
   -5.7780   13.4740   -0.0800 N   0  0  0  0  0  0  0  0  0  0  0  0
    0.1390   14.3480   -1.2830 C   0  0  0  0  0  0  0  0  0  0  0  0
    1.0050   14.3410   -2.5360 C   0  0  0  0  0  0  0  0  0  0  0  0
    1.6420   13.0570   -2.6580 O   0  0  0  0  0  0  0  0  0  0  0  0
    0.9590   12.0960   -3.3170 C   0  0  0  0  0  0  0  0  0  0  0  0
    0.6250   11.0220   -2.8220 O   0  0  0  0  0  0  0  0  0  0  0  0
    0.6360   12.4750   -4.7340 C   0  0  0  0  0  0  0  0  0  0  0  0
   -0.4370   11.6460   -5.2200 N   0  0  0  0  0  0  0  0  0  0  0  0
   -0.3520   10.6790   -6.1770 C   0  0  0  0  0  0  0  0  0  0  0  0
   -1.6830   11.7890   -4.7070 N   0  0  0  0  0  0  0  0  0  0  0  0
   -1.6090   10.1600   -6.2800 C   0  0  0  0  0  0  0  0  0  0  0  0
   -2.3960   10.8690   -5.3660 C   0  0  0  0  0  0  0  0  0  0  0  0
   -2.1920    8.7900   -7.3950 Br  0  0  0  0  0  0  0  0  0  0  0  0
  1  2  1  0
  2  3  2  0
  2  4  1  0
  4  5  1  0
  4  6  2  0
  3  7  1  0
  6  7  1  0
  7  8  1  0
  6  9  1  0
  5 10  1  0
 10 11  2  0
 10 12  1  0
  9 13  1  0
 13 14  1  0
 14 15  1  0
 15 16  1  0
 16 17  2  0
 16 18  1  0
 18 19  1  0
 19 20  1  0
 19 21  1  0
 20 22  2  0
 21 23  2  0
 22 23  1  0
 22 24  1  0
M  END
>  <comRMSD>  (220) 
0.263616

>  <∆∆G>  (220) 
-7.89112

>  <N_constrained_atoms>  (220) 
22.0

>  <LE>  (220) 
-0.328797

>  <ref_pdb>  (220) 
x0104_0

>  <ref_mols>  (220) 
x0722_0_A_α,x0855_0_A_α

>  <%Rank>  (220) 
3.757721

>  <generation_date>  (220) 
nan

>  <method>  (220) 
nan

>  <submitter_email>  (220) 
nan

>  <original SMILES>  (220) 
Cc1nn(C)c(CCCOC(=O)Cn2cc(Br)cn2)c1CC(N)=O

>  <ref_url>  (220) 
nan

>  <submitter_name>  (220) 
nan

>  <submitter_institution>  (220) 
nan

$$$$
6WOJ_0_A_α-6woj_D_0_D_β
     RDKit          3D

 17 17  0  0  0  0  0  0  0  0999 V2000
   -1.3710   21.8210   -7.9160 C   0  0  0  0  0  0  0  0  0  0  0  0
   -0.4870   20.2880   -7.6000 P   0  0  2  0  0  0  0  0  0  0  0  0
   -1.0710   19.7610   -6.2240 O   0  0  0  0  0  0  0  0  0  0  0  0
   -2.8860   21.9390   -8.1310 C   0  0  1  0  0  0  0  0  0  0  0  0
    0.9880   20.4880   -7.5380 O   0  0  0  0  0  0  0  0  0  0  0  0
   -0.8650   19.1020   -8.6270 O   0  0  0  0  0  0  0  0  0  0  0  0
   -3.6150   21.1010   -7.2120 O   0  0  0  0  0  0  0  0  0  0  0  0
   -3.4150   23.3790   -7.9290 C   0  0  1  0  0  0  0  0  0  0  0  0
   -4.3420   23.7960   -8.9410 O   0  0  0  0  0  0  0  0  0  0  0  0
   -1.4010   18.2680   -5.8320 P   0  0  0  0  0  0  0  0  0  0  0  0
   -4.3360   21.8990   -6.2550 C   0  0  1  0  0  0  0  0  0  0  0  0
   -4.0820   23.3840   -6.5510 C   0  0  2  0  0  0  0  0  0  0  0  0
   -5.7210   21.5800   -6.2590 O   0  0  0  0  0  0  0  0  0  0  0  0
   -5.3410   24.1000   -6.5810 O   0  0  0  0  0  0  0  0  0  0  0  0
   -0.1220   17.3960   -6.1840 O   0  0  0  0  0  0  0  0  0  0  0  0
   -1.8480   18.0540   -4.4630 O   0  0  0  0  0  0  0  0  0  0  0  0
   -2.4870   17.7760   -6.8840 O   0  0  0  0  0  0  0  0  0  0  0  0
  1  2  1  0
  2  3  1  0
  4  1  1  1
  2  5  2  0
  2  6  1  6
  4  7  1  0
  4  8  1  0
  8  9  1  6
  3 10  1  0
  7 11  1  0
  8 12  1  0
 11 12  1  0
 11 13  1  6
 12 14  1  6
 10 15  1  0
 10 16  2  0
 10 17  1  0
M  END
>  <comRMSD>  (221) 
0.658075

>  <∆∆G>  (221) 
-14.543266

>  <N_constrained_atoms>  (221) 
17.0

>  <LE>  (221) 
-0.855486

>  <ref_pdb>  (221) 
x0104_0

>  <ref_mols>  (221) 


>  <%Rank>  (221) 
3.77488

>  <generation_date>  (221) 
nan

>  <method>  (221) 
nan

>  <submitter_email>  (221) 
nan

>  <original SMILES>  (221) 
O=P(O)(O)OP(=O)(O)CC1OC(O)C(O)C1O

>  <ref_url>  (221) 
nan

>  <submitter_name>  (221) 
nan

>  <submitter_institution>  (221) 
nan

$$$$
x0091_0_B_α-x0142_0_A_β
     RDKit          3D

 27 29  0  0  0  0  0  0  0  0999 V2000
   12.6710   21.0540   13.6450 N   0  0  0  0  0  0  0  0  0  0  0  0
   12.1490   21.8240   14.7660 C   0  0  0  0  0  0  0  0  0  0  0  0
   12.2330   19.6530   13.5440 C   0  0  0  0  0  0  0  0  0  0  0  0
   13.6450   21.5020   12.7600 C   0  0  0  0  0  0  0  0  0  0  0  0
   14.0240   20.8320   11.8040 O   0  0  0  0  0  0  0  0  0  0  0  0
   14.1500   22.7560   13.0340 N   0  0  0  0  0  0  0  0  0  0  0  0
   13.1640   18.7150   14.2550 C   0  0  0  0  0  0  0  0  0  0  0  0
   12.6810   17.7190   15.0170 N   0  0  0  0  0  0  0  0  0  0  0  0
   14.5820   18.7000   14.2550 C   0  0  0  0  0  0  0  0  0  0  0  0
   15.1350   23.3730   12.1930 C   0  0  0  0  0  0  0  0  0  0  0  0
   13.7820   17.0480   15.5190 O   0  0  0  0  0  0  0  0  0  0  0  0
   14.9190   17.6380   15.0610 C   0  0  0  0  0  0  0  0  0  0  0  0
   16.5960   23.1390   12.4460 C   0  0  0  0  0  0  0  0  0  0  0  0
   15.9990   24.4770   12.7390 C   0  0  0  0  0  0  0  0  0  0  0  0
   16.1990   17.0370   15.5050 C   0  0  0  0  0  0  0  0  0  0  0  0
   16.0080   15.8990   16.5130 C   0  0  0  0  0  0  0  0  0  0  0  0
   15.3440   14.6580   15.9040 C   0  0  0  0  0  0  0  0  0  0  0  0
   15.9770   13.3380   16.3640 C   0  0  0  0  0  0  0  0  0  0  0  0
   15.3530   12.0820   15.7530 C   0  0  0  0  0  0  0  0  0  0  0  0
   15.5550   12.0160   14.3410 O   0  0  0  0  0  0  0  0  0  0  0  0
   15.3710   10.8350   13.6820 C   0  0  0  0  0  0  0  0  0  0  0  0
   14.7930    9.8120   14.4420 C   0  0  0  0  0  0  0  0  0  0  0  0
   15.7040   10.5790   12.3520 C   0  0  0  0  0  0  0  0  0  0  0  0
   14.5520    8.5530   13.8840 C   0  0  0  0  0  0  0  0  0  0  0  0
   15.4610    9.3180   11.7970 C   0  0  0  0  0  0  0  0  0  0  0  0
   14.8850    8.2950   12.5520 C   0  0  0  0  0  0  0  0  0  0  0  0
   14.6470    7.0400   11.9850 N   0  0  0  0  0  0  0  0  0  0  0  0
  1  2  1  0
  1  3  1  0
  1  4  1  0
  4  5  2  0
  4  6  1  0
  3  7  1  0
  7  8  2  0
  7  9  1  0
  6 10  1  0
  8 11  1  0
  9 12  2  0
 11 12  1  0
 10 13  1  0
 10 14  1  0
 13 14  1  0
 12 15  1  0
 15 16  1  0
 16 17  1  0
 17 18  1  0
 18 19  1  0
 19 20  1  0
 20 21  1  0
 21 22  2  0
 21 23  1  0
 22 24  1  0
 23 25  2  0
 24 26  2  0
 25 26  1  0
 26 27  1  0
M  END
>  <comRMSD>  (222) 
0.135571

>  <∆∆G>  (222) 
-4.785339

>  <N_constrained_atoms>  (222) 
24.0

>  <LE>  (222) 
-0.177235

>  <ref_pdb>  (222) 
x0104_0

>  <ref_mols>  (222) 
x0091_0_B_α,x0142_0_A_β

>  <%Rank>  (222) 
3.792038

>  <generation_date>  (222) 
nan

>  <method>  (222) 
nan

>  <submitter_email>  (222) 
nan

>  <original SMILES>  (222) 
CN(Cc1cc(CCCCCOc2ccc(N)cc2)on1)C(=O)NC1CC1

>  <ref_url>  (222) 
nan

>  <submitter_name>  (222) 
nan

>  <submitter_institution>  (222) 
nan

$$$$
6mea_B_0_B_β-5cms_C_2_C_γ
     RDKit          3D

 16 16  0  0  0  0  0  0  0  0999 V2000
   -1.5440   20.4140   -8.0700 O   0  0  0  0  0  0  0  0  0  0  0  0
   -0.1330   19.8190   -7.6270 P   0  0  0  0  0  0  0  0  0  0  0  0
   -0.3810   19.1710   -6.2150 O   0  0  0  0  0  0  0  0  0  0  0  0
    0.9800   20.8060   -7.6450 O   0  0  0  0  0  0  0  0  0  0  0  0
    0.0390   18.5970   -8.6490 O   0  0  0  0  0  0  0  0  0  0  0  0
   -1.3470   17.9740   -5.8920 P   0  0  2  0  0  0  0  0  0  0  0  0
   -0.3660   16.7300   -5.5850 O   0  0  0  0  0  0  0  0  0  0  0  0
   -2.5100   17.7590   -6.7990 O   0  0  0  0  0  0  0  0  0  0  0  0
   -1.7750   18.4440   -4.4380 O   0  0  0  0  0  0  0  0  0  0  0  0
   -0.8110   15.6680   -4.7490 C   0  0  2  0  0  0  0  0  0  0  0  0
   -0.2150   15.6700   -3.4450 O   0  0  0  0  0  0  0  0  0  0  0  0
   -0.5640   14.2250   -5.2330 C   0  0  1  0  0  0  0  0  0  0  0  0
    0.8080   13.8080   -5.3720 O   0  0  0  0  0  0  0  0  0  0  0  0
   -0.5430   14.3860   -2.8810 C   0  0  0  0  0  0  0  0  0  0  0  0
   -1.0830   13.5140   -4.0170 C   0  0  2  0  0  0  0  0  0  0  0  0
   -0.5960   12.1860   -3.9810 O   0  0  0  0  0  0  0  0  0  0  0  0
  1  2  1  0
  2  3  1  0
  2  4  2  0
  2  5  1  0
  3  6  1  0
  6  7  1  0
  6  8  2  0
  6  9  1  1
 10  7  1  6
 10 11  1  0
 10 12  1  0
 12 13  1  1
 11 14  1  0
 12 15  1  0
 14 15  1  0
 15 16  1  1
M  END
>  <comRMSD>  (223) 
0.520043

>  <∆∆G>  (223) 
-9.966921

>  <N_constrained_atoms>  (223) 
16.0

>  <LE>  (223) 
-0.622933

>  <ref_pdb>  (223) 
x0104_0

>  <ref_mols>  (223) 


>  <%Rank>  (223) 
3.809197

>  <generation_date>  (223) 
nan

>  <method>  (223) 
nan

>  <submitter_email>  (223) 
nan

>  <original SMILES>  (223) 
O=P(O)(O)OP(=O)(O)OC1OCC(O)C1O

>  <ref_url>  (223) 
nan

>  <submitter_name>  (223) 
nan

>  <submitter_institution>  (223) 
nan

$$$$
x0438_0_A_α-x0371_0_A_β
     RDKit          3D

 14 15  0  0  0  0  0  0  0  0999 V2000
   -8.1650   15.4990    3.8500 C   0  0  0  0  0  0  0  0  0  0  0  0
   -9.3850   15.3010    2.5640 S   0  0  0  0  0  0  0  0  0  0  0  0
  -10.6090   14.8050    3.1730 O   0  0  0  0  0  0  0  0  0  0  0  0
   -8.7540   14.0120    1.5030 C   0  0  0  0  0  0  0  0  0  0  0  0
   -9.4450   16.5150    1.7780 O   0  0  0  0  0  0  0  0  0  0  0  0
   -7.4120   14.3380    0.9620 C   0  0  0  0  0  0  0  0  0  0  0  0
   -7.1910   14.7230   -0.3430 N   0  0  0  0  0  0  0  0  0  0  0  0
   -6.2850   14.3000    1.6310 N   0  0  0  0  0  0  0  0  0  0  0  0
   -5.3000   14.6550    0.7460 C   0  0  0  0  0  0  0  0  0  0  0  0
   -5.8450   14.9290   -0.5030 C   0  0  0  0  0  0  0  0  0  0  0  0
   -5.0820   15.3160   -1.6010 C   0  0  0  0  0  0  0  0  0  0  0  0
   -3.9190   14.7660    0.9390 C   0  0  0  0  0  0  0  0  0  0  0  0
   -3.7070   15.4150   -1.3940 C   0  0  0  0  0  0  0  0  0  0  0  0
   -3.1320   15.1450   -0.1460 C   0  0  0  0  0  0  0  0  0  0  0  0
  2  1  1  0
  2  3  2  0
  2  4  1  0
  2  5  2  0
  4  6  1  0
  6  7  1  0
  6  8  2  0
  8  9  1  0
  7 10  1  0
  9 10  2  0
 10 11  1  0
  9 12  1  0
 11 13  2  0
 12 14  2  0
 13 14  1  0
M  END
>  <comRMSD>  (224) 
0.304405

>  <∆∆G>  (224) 
-3.995069

>  <N_constrained_atoms>  (224) 
14.0

>  <LE>  (224) 
-0.285362

>  <ref_pdb>  (224) 
x0104_0

>  <ref_mols>  (224) 
x0438_0_A_α,x0371_0_A_β

>  <%Rank>  (224) 
3.826356

>  <generation_date>  (224) 
nan

>  <method>  (224) 
nan

>  <submitter_email>  (224) 
nan

>  <original SMILES>  (224) 
CS(=O)(=O)Cc1nc2ccccc2[nH]1

>  <ref_url>  (224) 
nan

>  <submitter_name>  (224) 
nan

>  <submitter_institution>  (224) 
nan

$$$$
x0592_0_A_α-x0852_0_B_α
     RDKit          3D

 21 22  0  0  0  0  0  0  0  0999 V2000
   -2.6490   14.9590    1.0470 N   0  0  0  0  0  0  0  0  0  0  0  0
   -3.1910   14.9230   -0.2020 C   0  0  0  0  0  0  0  0  0  0  0  0
   -2.4770   14.9260   -1.1970 O   0  0  0  0  0  0  0  0  0  0  0  0
   -4.6290   14.8640   -0.2630 C   0  0  0  0  0  0  0  0  0  0  0  0
   -5.4650   15.2070   -1.3530 C   0  0  0  0  0  0  0  0  0  0  0  0
   -5.5050   14.4620    0.7140 C   0  0  0  0  0  0  0  0  0  0  0  0
   -6.7610   15.0310   -1.0810 N   0  0  0  0  0  0  0  0  0  0  0  0
   -6.7470   14.5760    0.1850 N   0  0  0  0  0  0  0  0  0  0  0  0
   -7.9790   14.2570    0.8670 C   0  0  0  0  0  0  0  0  0  0  0  0
   -7.7060   13.3470    2.0670 C   0  0  0  0  0  0  0  0  0  0  0  0
   -7.4730   14.1230    3.2510 O   0  0  0  0  0  0  0  0  0  0  0  0
   -8.3470   15.1130    3.4700 C   0  0  0  0  0  0  0  0  0  0  0  0
   -8.4170   15.6370    4.7770 C   0  0  0  0  0  0  0  0  0  0  0  0
   -9.1610   15.6150    2.4730 C   0  0  0  0  0  0  0  0  0  0  0  0
   -7.6190   15.1390    5.7990 O   0  0  0  0  0  0  0  0  0  0  0  0
  -10.0410   16.6330    2.7420 C   0  0  0  0  0  0  0  0  0  0  0  0
   -9.3180   16.6740    5.0480 C   0  0  0  0  0  0  0  0  0  0  0  0
   -9.4560   17.2540    6.3480 C   0  0  0  0  0  0  0  0  0  0  0  0
  -11.1200   17.2730    1.3260 Br  0  0  0  0  0  0  0  0  0  0  0  0
  -10.1280   17.1710    4.0220 C   0  0  0  0  0  0  0  0  0  0  0  0
   -9.6410   17.7150    7.3980 N   0  0  0  0  0  0  0  0  0  0  0  0
  1  2  1  0
  2  3  2  0
  2  4  1  0
  4  5  1  0
  4  6  2  0
  5  7  2  0
  6  8  1  0
  7  8  1  0
  8  9  1  0
  9 10  1  0
 10 11  1  0
 11 12  1  0
 12 13  2  0
 12 14  1  0
 13 15  1  0
 14 16  2  0
 13 17  1  0
 17 18  1  0
 16 19  1  0
 16 20  1  0
 17 20  2  0
 18 21  3  0
M  END
>  <comRMSD>  (225) 
0.426361

>  <∆∆G>  (225) 
-4.723081

>  <N_constrained_atoms>  (225) 
21.0

>  <LE>  (225) 
-0.224909

>  <ref_pdb>  (225) 
x0104_0

>  <ref_mols>  (225) 
x0592_0_A_α,x0852_0_B_α

>  <%Rank>  (225) 
3.843514

>  <generation_date>  (225) 
nan

>  <method>  (225) 
nan

>  <submitter_email>  (225) 
nan

>  <original SMILES>  (225) 
N#Cc1cc(Br)cc(OCCn2cc(C(N)=O)cn2)c1O

>  <ref_url>  (225) 
nan

>  <submitter_name>  (225) 
nan

>  <submitter_institution>  (225) 
nan

$$$$
x0950_0_A_α-x0282_0_A_α
     RDKit          3D

 21 22  0  0  0  0  0  0  0  0999 V2000
    2.7550   13.0110   -4.5550 C   0  0  0  0  0  0  0  0  0  0  0  0
    1.2690   12.7330   -4.6120 C   0  0  1  0  0  0  0  0  0  0  0  0
    0.9610   11.9230   -5.7370 O   0  0  0  0  0  0  0  0  0  0  0  0
    0.8460   12.1390   -3.2720 C   0  0  0  0  0  0  0  0  0  0  0  0
    0.3980   11.0130   -3.0850 O   0  0  0  0  0  0  0  0  0  0  0  0
    1.0580   13.0760   -2.3230 O   0  0  0  0  0  0  0  0  0  0  0  0
    0.2220   14.2460   -2.4250 C   0  0  0  0  0  0  0  0  0  0  0  0
   -0.3820   14.4050   -1.0800 C   0  0  0  0  0  0  0  0  0  0  0  0
   -1.7050   14.4060   -0.9480 N   0  0  0  0  0  0  0  0  0  0  0  0
    0.4490   14.5290   -0.0380 C   0  0  0  0  0  0  0  0  0  0  0  0
   -0.1170   14.6340    1.2010 C   0  0  0  0  0  0  0  0  0  0  0  0
   -2.1900   14.5220    0.2860 C   0  0  0  0  0  0  0  0  0  0  0  0
   -3.5400   14.5290    0.4220 N   0  0  0  0  0  0  0  0  0  0  0  0
   -1.4340   14.6260    1.3970 N   0  0  0  0  0  0  0  0  0  0  0  0
   -4.0460   14.1870    1.7190 C   0  0  0  0  0  0  0  0  0  0  0  0
   -4.3580   14.5210   -0.8050 C   0  0  0  0  0  0  0  0  0  0  0  0
   -5.3770   14.8760    1.8390 C   0  0  0  0  0  0  0  0  0  0  0  0
   -5.8160   14.9490   -0.5690 C   0  0  0  0  0  0  0  0  0  0  0  0
   -6.2910   14.3400    0.7540 C   0  0  0  0  0  0  0  0  0  0  0  0
   -7.7780   14.4560    1.0860 C   0  0  0  0  0  0  0  0  0  0  0  0
   -8.5890   14.6060   -0.0670 O   0  0  0  0  0  0  0  0  0  0  0  0
  2  1  1  1
  2  3  1  0
  2  4  1  0
  4  5  2  0
  4  6  1  0
  6  7  1  0
  7  8  1  0
  8  9  2  0
  8 10  1  0
 10 11  2  0
  9 12  1  0
 12 13  1  0
 11 14  1  0
 12 14  2  0
 13 15  1  0
 13 16  1  0
 15 17  1  0
 16 18  1  0
 17 19  1  0
 18 19  1  0
 19 20  1  0
 20 21  1  0
M  END
>  <comRMSD>  (226) 
0.355534

>  <∆∆G>  (226) 
-7.758362

>  <N_constrained_atoms>  (226) 
20.0

>  <LE>  (226) 
-0.369446

>  <ref_pdb>  (226) 
x0104_0

>  <ref_mols>  (226) 
x0950_0_A_α,x0282_0_A_α

>  <%Rank>  (226) 
3.860673

>  <generation_date>  (226) 
nan

>  <method>  (226) 
nan

>  <submitter_email>  (226) 
nan

>  <original SMILES>  (226) 
C[C@@H](O)C(=O)OCc1ccnc(N2CCC(CO)CC2)n1

>  <ref_url>  (226) 
nan

>  <submitter_name>  (226) 
nan

>  <submitter_institution>  (226) 
nan

$$$$
x0950_0_A_α-x0253_0_A_α
     RDKit          3D

 15 15  0  0  0  0  0  0  0  0999 V2000
    2.7300   12.3480   -4.5020 C   0  0  0  0  0  0  0  0  0  0  0  0
    1.2290   12.6080   -4.3710 C   0  0  1  0  0  0  0  0  0  0  0  0
    0.4670   11.9210   -5.4140 O   0  0  0  0  0  0  0  0  0  0  0  0
    0.7580   12.0820   -3.0180 C   0  0  0  0  0  0  0  0  0  0  0  0
    0.2350   10.9990   -2.8390 O   0  0  0  0  0  0  0  0  0  0  0  0
    0.9760   12.9490   -1.9970 O   0  0  0  0  0  0  0  0  0  0  0  0
    1.1530   11.7680   -6.5730 C   0  0  0  0  0  0  0  0  0  0  0  0
    2.2310   12.2720   -6.7200 O   0  0  0  0  0  0  0  0  0  0  0  0
    0.4790   10.9000   -7.6080 C   0  0  0  0  0  0  0  0  0  0  0  0
   -0.6230   10.1360   -7.2250 C   0  0  0  0  0  0  0  0  0  0  0  0
    0.9060   10.8070   -8.9460 C   0  0  0  0  0  0  0  0  0  0  0  0
   -1.2750    9.2810   -8.1260 C   0  0  0  0  0  0  0  0  0  0  0  0
    0.2590    9.9670   -9.8510 C   0  0  0  0  0  0  0  0  0  0  0  0
   -2.4440    8.4550   -7.6730 C   0  0  0  0  0  0  0  0  0  0  0  0
   -0.8240    9.2040   -9.4420 C   0  0  0  0  0  0  0  0  0  0  0  0
  2  1  1  6
  2  3  1  0
  2  4  1  0
  4  5  2  0
  4  6  1  0
  3  7  1  0
  7  8  2  0
  7  9  1  0
  9 10  2  0
  9 11  1  0
 10 12  1  0
 11 13  2  0
 12 14  1  0
 12 15  2  0
 13 15  1  0
M  END
>  <comRMSD>  (227) 
0.287598

>  <∆∆G>  (227) 
-2.967656

>  <N_constrained_atoms>  (227) 
15.0

>  <LE>  (227) 
-0.197844

>  <ref_pdb>  (227) 
x0104_0

>  <ref_mols>  (227) 
x0950_0_A_α,x0253_0_A_α

>  <%Rank>  (227) 
3.877831

>  <generation_date>  (227) 
nan

>  <method>  (227) 
nan

>  <submitter_email>  (227) 
nan

>  <original SMILES>  (227) 
Cc1cccc(C(=O)O[C@H](C)C(=O)O)c1

>  <ref_url>  (227) 
nan

>  <submitter_name>  (227) 
nan

>  <submitter_institution>  (227) 
nan

$$$$
5cms_R_17_R_γ-1spv_0_A_α
     RDKit          3D

 21 22  0  0  0  0  0  0  0  0999 V2000
   -0.0180   12.4160   -3.9480 O   0  0  0  0  0  0  0  0  0  0  0  0
   -0.3410   13.8050   -4.1390 C   0  0  1  0  0  0  0  0  0  0  0  0
   -0.0130   14.6040   -2.8860 C   0  0  0  0  0  0  0  0  0  0  0  0
    0.5910   14.3740   -5.1950 C   0  0  2  0  0  0  0  0  0  0  0  0
    1.7590   13.5740   -5.3180 O   0  0  0  0  0  0  0  0  0  0  0  0
    0.7490   15.7640   -3.2690 O   0  0  0  0  0  0  0  0  0  0  0  0
    0.8830   15.7970   -4.6970 C   0  0  2  0  0  0  0  0  0  0  0  0
   -0.0410   16.9010   -5.2170 C   0  0  0  0  0  0  0  0  0  0  0  0
    0.6900   18.0840   -5.8460 C   0  0  0  0  0  0  0  0  0  0  0  0
   -0.2860   18.9470   -6.4260 O   0  0  0  0  0  0  0  0  0  0  0  0
    0.0060   19.6400   -7.8650 S   0  0  0  0  0  0  0  0  0  0  0  0
    0.9330   20.7320   -7.6920 O   0  0  0  0  0  0  0  0  0  0  0  0
    0.2320   18.5830   -8.8220 O   0  0  0  0  0  0  0  0  0  0  0  0
   -1.5830   20.3140   -8.2010 C   0  0  0  0  0  0  0  0  0  0  0  0
   -1.8750   21.7170   -7.7330 C   0  0  0  0  0  0  0  0  0  0  0  0
   -3.3310   21.9460   -7.7940 N   0  0  0  0  0  0  0  0  0  0  0  0
   -3.7730   22.4160   -9.1240 C   0  0  0  0  0  0  0  0  0  0  0  0
   -3.7840   22.9190   -6.7820 C   0  0  0  0  0  0  0  0  0  0  0  0
   -5.2610   22.7600   -9.2000 C   0  0  0  0  0  0  0  0  0  0  0  0
   -5.2390   23.3770   -6.9340 C   0  0  0  0  0  0  0  0  0  0  0  0
   -5.5470   23.8070   -8.2680 O   0  0  0  0  0  0  0  0  0  0  0  0
  2  1  1  1
  2  3  1  0
  2  4  1  0
  4  5  1  1
  3  6  1  0
  4  7  1  0
  6  7  1  0
  7  8  1  6
  8  9  1  0
  9 10  1  0
 11 10  1  0
 11 12  2  0
 11 13  2  0
 11 14  1  0
 14 15  1  0
 15 16  1  0
 16 17  1  0
 16 18  1  0
 17 19  1  0
 18 20  1  0
 19 21  1  0
 20 21  1  0
M  END
>  <comRMSD>  (228) 
0.464629

>  <∆∆G>  (228) 
-12.332106

>  <N_constrained_atoms>  (228) 
20.0

>  <LE>  (228) 
-0.587243

>  <ref_pdb>  (228) 
x0104_0

>  <ref_mols>  (228) 


>  <%Rank>  (228) 
3.89499

>  <generation_date>  (228) 
nan

>  <method>  (228) 
nan

>  <submitter_email>  (228) 
nan

>  <original SMILES>  (228) 
O=S(=O)(CCN1CCOCC1)OCCC1OCC(O)C1O

>  <ref_url>  (228) 
nan

>  <submitter_name>  (228) 
nan

>  <submitter_institution>  (228) 
nan

$$$$
5cb5_P_0_P_β-3ew5_A_0_A_α
     RDKit          3D

 14 13  0  0  0  0  0  0  0  0999 V2000
   -1.9090   20.3670   -7.9670 O   0  0  0  0  0  0  0  0  0  0  0  0
   -0.3760   19.9200   -7.8020 P   0  0  2  0  0  0  0  0  0  0  0  0
   -0.3210   18.9190   -6.5990 O   0  0  0  0  0  0  0  0  0  0  0  0
   -2.2530   21.7300   -8.1970 C   0  0  0  0  0  0  0  0  0  0  0  0
    0.6650   20.9890   -7.8690 O   0  0  0  0  0  0  0  0  0  0  0  0
   -0.1300   18.8330   -8.9480 O   0  0  0  0  0  0  0  0  0  0  0  0
   -3.3990   22.2110   -7.2850 C   0  0  2  0  0  0  0  0  0  0  0  0
   -1.5680   18.2140   -5.9610 P   0  0  0  0  0  0  0  0  0  0  0  0
   -4.7520   22.2330   -8.0070 C   0  0  0  0  0  0  0  0  0  0  0  0
   -3.1820   23.5230   -6.7600 O   0  0  0  0  0  0  0  0  0  0  0  0
   -1.0270   17.0680   -5.0060 O   0  0  0  0  0  0  0  0  0  0  0  0
   -2.5900   17.6780   -6.8960 O   0  0  0  0  0  0  0  0  0  0  0  0
   -2.1920   19.2830   -4.9710 O   0  0  0  0  0  0  0  0  0  0  0  0
   -5.8170   22.0050   -7.0870 O   0  0  0  0  0  0  0  0  0  0  0  0
  1  2  1  0
  2  3  1  0
  1  4  1  0
  2  5  2  0
  2  6  1  6
  4  7  1  0
  3  8  1  0
  7  9  1  0
  7 10  1  6
  8 11  1  0
  8 12  2  0
  8 13  1  0
  9 14  1  0
M  END
>  <comRMSD>  (229) 
0.609608

>  <∆∆G>  (229) 
-12.484237

>  <N_constrained_atoms>  (229) 
14.0

>  <LE>  (229) 
-0.891731

>  <ref_pdb>  (229) 
x0104_0

>  <ref_mols>  (229) 


>  <%Rank>  (229) 
3.912148

>  <generation_date>  (229) 
nan

>  <method>  (229) 
nan

>  <submitter_email>  (229) 
nan

>  <original SMILES>  (229) 
O=P(O)(O)OP(=O)(O)OC[C@@H](O)CO

>  <ref_url>  (229) 
nan

>  <submitter_name>  (229) 
nan

>  <submitter_institution>  (229) 
nan

$$$$
x0104_0_A_β-x0628_0_A_α
     RDKit          3D

 23 24  0  0  0  0  0  0  0  0999 V2000
   -6.8430   14.7210    2.6290 N   0  0  0  0  0  0  0  0  0  0  0  0
   -6.3190   14.7610    1.3440 C   0  0  0  0  0  0  0  0  0  0  0  0
   -7.1360   14.6600    0.2280 C   0  0  0  0  0  0  0  0  0  0  0  0
   -4.9500   14.9100    1.1170 C   0  0  0  0  0  0  0  0  0  0  0  0
   -4.3490   14.9610   -0.1000 N   0  0  0  0  0  0  0  0  0  0  0  0
   -6.5690   14.7110   -1.0400 C   0  0  0  0  0  0  0  0  0  0  0  0
   -5.1970   14.8590   -1.1520 C   0  0  0  0  0  0  0  0  0  0  0  0
   -4.7240   14.8940   -2.4440 O   0  0  0  0  0  0  0  0  0  0  0  0
   -3.3160   14.7710   -2.5620 C   0  0  0  0  0  0  0  0  0  0  0  0
   -2.8220   13.5020   -1.8560 C   0  0  0  0  0  0  0  0  0  0  0  0
   -1.8820   12.6950   -2.7540 C   0  0  0  0  0  0  0  0  0  0  0  0
   -2.4460   12.4100   -4.1480 C   0  0  0  0  0  0  0  0  0  0  0  0
   -1.5740   11.6570   -5.0980 C   0  0  0  0  0  0  0  0  0  0  0  0
   -1.8850   10.4990   -5.6470 N   0  0  0  0  0  0  0  0  0  0  0  0
   -0.3280   12.0340   -5.5570 N   0  0  0  0  0  0  0  0  0  0  0  0
    0.4530   13.2200   -5.2540 C   0  0  0  0  0  0  0  0  0  0  0  0
   -0.8070   10.2080   -6.4320 C   0  0  0  0  0  0  0  0  0  0  0  0
    0.1700   11.1200   -6.4110 N   0  0  0  0  0  0  0  0  0  0  0  0
   -0.7270    8.9750   -7.2450 C   0  0  0  0  0  0  0  0  0  0  0  0
    1.5920   12.9290   -4.2740 C   0  0  0  0  0  0  0  0  0  0  0  0
    1.0720   12.2500   -3.0350 C   0  0  0  0  0  0  0  0  0  0  0  0
    0.5810   11.1340   -3.0080 O   0  0  0  0  0  0  0  0  0  0  0  0
    1.1950   12.9840   -1.9150 O   0  0  0  0  0  0  0  0  0  0  0  0
  1  2  1  0
  2  3  2  0
  2  4  1  0
  4  5  2  0
  3  6  1  0
  5  7  1  0
  6  7  2  0
  7  8  1  0
  8  9  1  0
  9 10  1  0
 10 11  1  0
 11 12  1  0
 12 13  1  0
 13 14  2  0
 13 15  1  0
 15 16  1  0
 14 17  1  0
 15 18  1  0
 17 18  2  0
 17 19  1  0
 16 20  1  0
 20 21  1  0
 21 22  2  0
 21 23  1  0
M  END
>  <comRMSD>  (230) 
0.189203

>  <∆∆G>  (230) 
-5.137409

>  <N_constrained_atoms>  (230) 
21.0

>  <LE>  (230) 
-0.223366

>  <ref_pdb>  (230) 
x0104_0

>  <ref_mols>  (230) 
x0104_0_A_β,x0628_0_A_α

>  <%Rank>  (230) 
3.929307

>  <generation_date>  (230) 
nan

>  <method>  (230) 
nan

>  <submitter_email>  (230) 
nan

>  <original SMILES>  (230) 
Cc1nc(CCCCOc2ccc(N)cn2)n(CCC(=O)O)n1

>  <ref_url>  (230) 
nan

>  <submitter_name>  (230) 
nan

>  <submitter_institution>  (230) 
nan

$$$$
6mea_B_0_B_α-2BFQ_1_A_β
     RDKit          3D

 17 17  0  0  0  0  0  0  0  0999 V2000
   -2.0630   21.6320   -7.3380 C   0  0  0  0  0  0  0  0  0  0  0  0
   -0.7760   20.5620   -7.8780 P   0  0  0  0  0  0  0  0  0  0  0  0
   -0.6270   19.8250   -6.5350 O   0  0  0  0  0  0  0  0  0  0  0  0
   -3.2250   22.0080   -8.2530 C   0  0  1  0  0  0  0  0  0  0  0  0
   -0.8970   19.0970   -8.5410 O   0  0  0  0  0  0  0  0  0  0  0  0
    0.8110   21.1570   -7.6500 O   0  0  0  0  0  0  0  0  0  0  0  0
   -4.3960   21.3360   -7.9290 O   0  0  0  0  0  0  0  0  0  0  0  0
   -3.6390   23.4720   -8.0590 C   0  0  1  0  0  0  0  0  0  0  0  0
   -4.5300   23.8750   -9.0470 O   0  0  0  0  0  0  0  0  0  0  0  0
   -1.4200   18.4160   -6.1530 P   0  0  0  0  0  0  0  0  0  0  0  0
   -5.1400   22.0700   -7.0230 C   0  0  2  0  0  0  0  0  0  0  0  0
   -4.4150   23.3350   -6.7560 C   0  0  2  0  0  0  0  0  0  0  0  0
   -5.3650   21.4660   -5.7920 O   0  0  0  0  0  0  0  0  0  0  0  0
   -5.3340   24.4010   -6.6380 O   0  0  0  0  0  0  0  0  0  0  0  0
   -0.7280   17.3060   -5.1050 O   0  0  0  0  0  0  0  0  0  0  0  0
   -2.0560   19.1190   -4.9550 O   0  0  0  0  0  0  0  0  0  0  0  0
   -2.7560   17.9700   -6.9080 O   0  0  0  0  0  0  0  0  0  0  0  0
  1  2  1  0
  2  3  1  0
  4  1  1  1
  2  5  1  0
  2  6  1  0
  4  7  1  0
  4  8  1  0
  8  9  1  6
  3 10  1  0
  7 11  1  0
  8 12  1  0
 11 12  1  0
 11 13  1  1
 12 14  1  6
 10 15  1  0
 10 16  1  0
 10 17  1  0
M  CHG  2   5  -1  16  -1
M  END
>  <comRMSD>  (231) 
0.588077

>  <∆∆G>  (231) 
-11.952154

>  <N_constrained_atoms>  (231) 
17.0

>  <LE>  (231) 
-0.703068

>  <ref_pdb>  (231) 
x0104_0

>  <ref_mols>  (231) 


>  <%Rank>  (231) 
3.946465

>  <generation_date>  (231) 
nan

>  <method>  (231) 
nan

>  <submitter_email>  (231) 
nan

>  <original SMILES>  (231) 
[O-][PH](O)(O)O[PH]([O-])(O)CC1OC(O)C(O)C1O

>  <ref_url>  (231) 
nan

>  <submitter_name>  (231) 
nan

>  <submitter_institution>  (231) 
nan

$$$$
x0290_0_A_α-x1015_0_A_α
     RDKit          3D

 27 29  0  0  0  0  0  0  0  0999 V2000
   -7.8170   13.7780    1.0110 N   0  0  0  0  0  0  0  0  0  0  0  0
   -8.6020   14.9710    0.7180 C   0  0  0  0  0  0  0  0  0  0  0  0
   -6.5610   14.0830    1.7230 C   0  0  0  0  0  0  0  0  0  0  0  0
   -5.4450   14.5150    0.7660 C   0  0  0  0  0  0  0  0  0  0  0  0
   -5.6350   14.5980   -0.4420 O   0  0  0  0  0  0  0  0  0  0  0  0
   -4.2590   14.7650    1.4120 N   0  0  0  0  0  0  0  0  0  0  0  0
   -3.0090   14.6920    0.8150 C   0  0  0  0  0  0  0  0  0  0  0  0
   -1.9600   14.6800    1.6770 N   0  0  0  0  0  0  0  0  0  0  0  0
   -2.8710   14.6270   -0.5680 C   0  0  0  0  0  0  0  0  0  0  0  0
   -0.7310   14.6170    1.1270 C   0  0  0  0  0  0  0  0  0  0  0  0
   -1.5990   14.5470   -1.1260 C   0  0  0  0  0  0  0  0  0  0  0  0
   -1.3920   14.4290   -2.6410 C   0  0  0  0  0  0  0  0  0  0  0  0
   -0.5040   14.5500   -0.2380 C   0  0  0  0  0  0  0  0  0  0  0  0
   -0.5580   13.1590   -2.7170 C   0  0  1  0  0  0  0  0  0  0  0  0
   -0.0390   12.2790   -3.7630 N   0  0  0  0  0  0  0  0  0  0  0  0
    0.8330   13.6120   -2.3340 C   0  0  0  0  0  0  0  0  0  0  0  0
    1.2270   14.7490   -2.1180 O   0  0  0  0  0  0  0  0  0  0  0  0
    0.6980   11.5580   -2.8300 C   0  0  0  0  0  0  0  0  0  0  0  0
    1.5430   12.4760   -2.3050 N   0  0  0  0  0  0  0  0  0  0  0  0
   -0.5600   11.5670   -4.8880 C   0  0  0  0  0  0  0  0  0  0  0  0
    0.6180   10.3810   -2.4780 O   0  0  0  0  0  0  0  0  0  0  0  0
   -0.0330   11.7800   -6.1730 C   0  0  0  0  0  0  0  0  0  0  0  0
   -1.5830   10.6110   -4.7590 C   0  0  0  0  0  0  0  0  0  0  0  0
   -0.4960   11.0640   -7.2860 C   0  0  0  0  0  0  0  0  0  0  0  0
   -2.0500    9.8890   -5.8710 C   0  0  0  0  0  0  0  0  0  0  0  0
   -1.4990   10.1190   -7.1270 C   0  0  0  0  0  0  0  0  0  0  0  0
   -2.0630    9.2260   -8.4870 Cl  0  0  0  0  0  0  0  0  0  0  0  0
  1  2  1  0
  1  3  1  0
  3  4  1  0
  4  5  2  0
  4  6  1  0
  6  7  1  0
  7  8  2  0
  7  9  1  0
  8 10  1  0
  9 11  2  0
 11 12  1  0
 10 13  2  0
 11 13  1  0
 14 12  1  6
 14 15  1  0
 14 16  1  0
 16 17  2  0
 15 18  1  0
 16 19  1  0
 18 19  1  0
 15 20  1  0
 18 21  2  0
 20 22  2  0
 20 23  1  0
 22 24  1  0
 23 25  2  0
 24 26  2  0
 25 26  1  0
 26 27  1  0
M  END
>  <comRMSD>  (232) 
0.557704

>  <∆∆G>  (232) 
-8.022629

>  <N_constrained_atoms>  (232) 
27.0

>  <LE>  (232) 
-0.297134

>  <ref_pdb>  (232) 
x0104_0

>  <ref_mols>  (232) 
x0290_0_A_α,x1015_0_A_α

>  <%Rank>  (232) 
3.963624

>  <generation_date>  (232) 
nan

>  <method>  (232) 
nan

>  <submitter_email>  (232) 
nan

>  <original SMILES>  (232) 
CNCC(=O)Nc1cc(CC2C(=O)NC(=O)N2c2ccc(Cl)cc2)ccn1

>  <ref_url>  (232) 
nan

>  <submitter_name>  (232) 
nan

>  <submitter_institution>  (232) 
nan

$$$$
x0228_0_B_β-x0766_1_B_α
     RDKit          3D

 22 24  0  0  0  0  0  0  0  0999 V2000
   -6.1480   25.4000  -13.9690 N   0  0  0  0  0  0  0  0  0  0  0  0
   -7.1580   26.2610  -13.6550 C   0  0  0  0  0  0  0  0  0  0  0  0
   -8.1720   26.5110  -14.3050 O   0  0  0  0  0  0  0  0  0  0  0  0
   -5.0620   25.1670  -13.1140 C   0  0  0  0  0  0  0  0  0  0  0  0
   -5.1750   24.3980  -11.9590 C   0  0  0  0  0  0  0  0  0  0  0  0
   -3.8240   25.7540  -13.4600 C   0  0  0  0  0  0  0  0  0  0  0  0
   -6.9030   26.9500  -12.3300 C   0  0  2  0  0  0  0  0  0  0  0  0
   -3.8020   26.4960  -14.6180 O   0  0  0  0  0  0  0  0  0  0  0  0
   -4.0750   24.1960  -11.1370 C   0  0  0  0  0  0  0  0  0  0  0  0
   -2.7270   25.5530  -12.6350 C   0  0  0  0  0  0  0  0  0  0  0  0
   -7.8650   26.5280  -11.2090 C   0  0  0  0  0  0  0  0  0  0  0  0
   -7.1410   28.4400  -12.5160 C   0  0  1  0  0  0  0  0  0  0  0  0
   -2.5200   26.8050  -15.1650 C   0  0  0  0  0  0  0  0  0  0  0  0
   -4.2200   23.3660   -9.8940 C   0  0  0  0  0  0  0  0  0  0  0  0
   -2.8590   24.7800  -11.4950 C   0  0  0  0  0  0  0  0  0  0  0  0
   -8.6480   27.8000  -10.9310 C   0  0  0  0  0  0  0  0  0  0  0  0
   -7.5900   28.8870  -11.1510 C   0  0  0  0  0  0  0  0  0  0  0  0
   -6.0350   29.1560  -13.2420 C   0  0  0  0  0  0  0  0  0  0  0  0
   -4.6730   29.0580  -12.9990 C   0  0  0  0  0  0  0  0  0  0  0  0
   -6.2900   30.0460  -14.3270 C   0  0  0  0  0  0  0  0  0  0  0  0
   -5.1580   30.5790  -14.8700 C   0  0  0  0  0  0  0  0  0  0  0  0
   -3.7590   30.0180  -14.0810 S   0  0  0  0  0  0  0  0  0  0  0  0
  1  2  1  0
  2  3  2  0
  1  4  1  0
  4  5  2  0
  4  6  1  0
  7  2  1  6
  6  8  1  0
  5  9  1  0
  6 10  2  0
  7 11  1  0
  7 12  1  0
  8 13  1  0
  9 14  1  0
  9 15  2  0
 10 15  1  0
 11 16  1  0
 12 17  1  0
 16 17  1  0
 12 18  1  1
 18 19  2  0
 18 20  1  0
 20 21  2  0
 19 22  1  0
 21 22  1  0
M  END
>  <comRMSD>  (233) 
0.468569

>  <∆∆G>  (233) 
-5.958057

>  <N_constrained_atoms>  (233) 
22.0

>  <LE>  (233) 
-0.270821

>  <ref_pdb>  (233) 
x0104_0

>  <ref_mols>  (233) 
x0228_0_B_β,x0766_1_B_α

>  <%Rank>  (233) 
3.980782

>  <generation_date>  (233) 
nan

>  <method>  (233) 
nan

>  <submitter_email>  (233) 
nan

>  <original SMILES>  (233) 
COc1ccc(C)cc1NC(=O)C1CCCC1c1ccsc1

>  <ref_url>  (233) 
nan

>  <submitter_name>  (233) 
nan

>  <submitter_institution>  (233) 
nan

$$$$
x0628_0_A_α-x0591_0_A_α
     RDKit          3D

 25 26  0  0  0  0  0  0  0  0999 V2000
   -0.8180    9.0160   -7.4020 C   0  0  0  0  0  0  0  0  0  0  0  0
   -0.7200   10.2640   -6.6270 C   0  0  0  0  0  0  0  0  0  0  0  0
   -1.7430   10.7420   -5.8660 N   0  0  0  0  0  0  0  0  0  0  0  0
    0.3790   11.0180   -6.6090 N   0  0  0  0  0  0  0  0  0  0  0  0
    0.0260   12.0220   -5.7840 N   0  0  0  0  0  0  0  0  0  0  0  0
   -1.2500   11.8550   -5.3450 C   0  0  0  0  0  0  0  0  0  0  0  0
   -2.0630   12.6200   -4.4840 C   0  0  0  0  0  0  0  0  0  0  0  0
    0.9710   13.0790   -5.4900 C   0  0  0  0  0  0  0  0  0  0  0  0
    1.8370   12.9470   -4.2260 C   0  0  0  0  0  0  0  0  0  0  0  0
   -2.5540   14.2550   -4.6750 S   0  0  1  0  0  0  0  0  0  0  0  0
    1.1360   12.2430   -3.0880 C   0  0  0  0  0  0  0  0  0  0  0  0
   -1.2920   15.3330   -4.4320 N   0  0  0  0  0  0  0  0  0  0  0  0
   -2.9270   14.6500   -6.2220 O   0  0  0  0  0  0  0  0  0  0  0  0
   -3.6520   14.5190   -3.4070 C   0  0  0  0  0  0  0  0  0  0  0  0
    0.5570   11.1690   -3.1040 O   0  0  0  0  0  0  0  0  0  0  0  0
    1.2140   12.9470   -1.9460 O   0  0  0  0  0  0  0  0  0  0  0  0
   -3.2080   14.3970   -2.0980 C   0  0  0  0  0  0  0  0  0  0  0  0
   -4.9610   14.8130   -3.7100 C   0  0  0  0  0  0  0  0  0  0  0  0
   -4.1190   14.5610   -1.0660 C   0  0  0  0  0  0  0  0  0  0  0  0
   -5.8730   14.9800   -2.6820 C   0  0  0  0  0  0  0  0  0  0  0  0
   -5.4530   14.8440   -1.3630 C   0  0  0  0  0  0  0  0  0  0  0  0
   -6.4090   14.9810   -0.2510 C   0  0  0  0  0  0  0  0  0  0  0  0
   -5.9290   14.7210    1.0070 N   0  0  0  0  0  0  0  0  0  0  0  0
   -7.5710   15.2890   -0.4880 O   0  0  0  0  0  0  0  0  0  0  0  0
   -6.8510   14.5280    2.0980 C   0  0  0  0  0  0  0  0  0  0  0  0
  1  2  1  0
  2  3  1  0
  2  4  2  0
  4  5  1  0
  3  6  2  0
  5  6  1  0
  6  7  1  0
  5  8  1  0
  8  9  1  0
  7 10  2  0
  9 11  1  0
 10 12  1  1
 10 13  2  0
 10 14  1  0
 11 15  2  0
 11 16  1  0
 14 17  2  0
 14 18  1  0
 17 19  1  0
 18 20  2  0
 19 21  2  0
 20 21  1  0
 21 22  1  0
 22 23  1  0
 22 24  2  0
 23 25  1  0
M  END
>  <comRMSD>  (234) 
0.446859

>  <∆∆G>  (234) 
-3.268877

>  <N_constrained_atoms>  (234) 
25.0

>  <LE>  (234) 
-0.130755

>  <ref_pdb>  (234) 
x0104_0

>  <ref_mols>  (234) 
x0628_0_A_α,x0591_0_A_α

>  <%Rank>  (234) 
3.997941

>  <generation_date>  (234) 
nan

>  <method>  (234) 
nan

>  <submitter_email>  (234) 
nan

>  <original SMILES>  (234) 
CNC(=O)c1ccc(S(N)(=O)=Cc2nc(C)nn2CCC(=O)O)cc1

>  <ref_url>  (234) 
nan

>  <submitter_name>  (234) 
nan

>  <submitter_institution>  (234) 
nan

$$$$
3VFQ_0_A_γ-EU0342_0_A_α
     RDKit          3D

 18 19  0  0  0  0  0  0  0  0999 V2000
   -4.6830   11.2890   -2.4470 O   0  0  0  0  0  0  0  0  0  0  0  0
   -4.6310   12.7040   -2.4250 C   0  0  1  0  0  0  0  0  0  0  0  0
   -4.1960   13.1840   -1.0620 C   0  0  0  0  0  0  0  0  0  0  0  0
   -3.5850   13.2960   -3.3820 C   0  0  2  0  0  0  0  0  0  0  0  0
   -2.6160   12.2900   -3.6710 O   0  0  0  0  0  0  0  0  0  0  0  0
   -3.8350   14.6470   -1.3210 C   0  0  2  0  0  0  0  0  0  0  0  0
   -2.9260   14.4910   -2.6250 C   0  0  2  0  0  0  0  0  0  0  0  0
   -2.8870   15.6860   -3.5910 C   0  0  0  0  0  0  0  0  0  0  0  0
   -3.2190   15.4030   -0.0650 C   0  0  2  0  0  0  0  0  0  0  0  0
   -5.1320   15.3940   -1.6040 C   0  0  0  0  0  0  0  0  0  0  0  0
   -1.8640   15.0450    0.5220 C   0  0  0  0  0  0  0  0  0  0  0  0
   -4.2120   15.4190    1.1080 C   0  0  0  0  0  0  0  0  0  0  0  0
   -6.1120   15.1950   -0.4860 C   0  0  0  0  0  0  0  0  0  0  0  0
   -0.8160   15.1920   -0.3440 N   0  0  0  0  0  0  0  0  0  0  0  0
   -7.3210   15.2530   -0.6420 O   0  0  0  0  0  0  0  0  0  0  0  0
   -1.7310   14.6780    1.6990 O   0  0  0  0  0  0  0  0  0  0  0  0
   -5.5360   14.9520    0.7390 N   0  0  0  0  0  0  0  0  0  0  0  0
    0.4810   14.9470    0.1650 C   0  0  0  0  0  0  0  0  0  0  0  0
  2  1  1  1
  2  3  1  0
  2  4  1  0
  4  5  1  1
  6  3  1  1
  4  7  1  0
  6  7  1  0
  7  8  1  6
  6  9  1  0
  6 10  1  0
  9 11  1  1
  9 12  1  0
 10 13  1  0
 11 14  1  0
 13 15  2  0
 11 16  2  0
 12 17  1  0
 13 17  1  0
 14 18  1  0
M  END
>  <comRMSD>  (235) 
0.441033

>  <∆∆G>  (235) 
-6.564428

>  <N_constrained_atoms>  (235) 
18.0

>  <LE>  (235) 
-0.36469

>  <ref_pdb>  (235) 
x0104_0

>  <ref_mols>  (235) 


>  <%Rank>  (235) 
4.0151

>  <generation_date>  (235) 
nan

>  <method>  (235) 
nan

>  <submitter_email>  (235) 
nan

>  <original SMILES>  (235) 
CNC(=O)C1CNC(=O)CC12CC(O)C(O)C2C

>  <ref_url>  (235) 
nan

>  <submitter_name>  (235) 
nan

>  <submitter_institution>  (235) 
nan

$$$$
x0159_0_B_β-x0253_0_A_α
     RDKit          3D

 25 27  0  0  0  0  0  0  0  0999 V2000
    1.8120    8.2800  -10.0180 N   0  0  0  0  0  0  0  0  0  0  0  0
    2.4180    8.8210  -11.0900 C   0  0  0  0  0  0  0  0  0  0  0  0
    1.9130    9.8950  -11.7570 N   0  0  0  0  0  0  0  0  0  0  0  0
    3.5330    8.4030  -11.6180 N   0  0  0  0  0  0  0  0  0  0  0  0
    0.6740   10.5540  -11.4030 C   0  0  0  0  0  0  0  0  0  0  0  0
    2.7870   10.2140  -12.7910 C   0  0  0  0  0  0  0  0  0  0  0  0
    3.7830    9.2470  -12.6710 C   0  0  0  0  0  0  0  0  0  0  0  0
    2.8280   11.2030  -13.7920 C   0  0  0  0  0  0  0  0  0  0  0  0
    4.8570    9.2360  -13.5670 C   0  0  0  0  0  0  0  0  0  0  0  0
    0.2250   10.2350   -9.9840 C   0  0  0  0  0  0  0  0  0  0  0  0
    3.9140   11.1770  -14.6760 C   0  0  0  0  0  0  0  0  0  0  0  0
    4.9130   10.2090  -14.5700 C   0  0  0  0  0  0  0  0  0  0  0  0
    0.8150   10.9540   -8.9720 C   0  0  0  0  0  0  0  0  0  0  0  0
   -0.7460    9.2750   -9.6350 C   0  0  0  0  0  0  0  0  0  0  0  0
   -1.0990    9.0740   -8.2800 C   0  0  0  0  0  0  0  0  0  0  0  0
    0.4840   10.7940   -7.6260 C   0  0  0  0  0  0  0  0  0  0  0  0
   -2.1310    8.0560   -7.8920 C   0  0  0  0  0  0  0  0  0  0  0  0
    1.1220   11.6150   -6.5470 C   0  0  0  0  0  0  0  0  0  0  0  0
   -0.4760    9.8450   -7.2840 C   0  0  0  0  0  0  0  0  0  0  0  0
    0.3830   11.8680   -5.4210 N   0  0  0  0  0  0  0  0  0  0  0  0
    2.2500   12.0530   -6.6310 O   0  0  0  0  0  0  0  0  0  0  0  0
    0.9520   12.7850   -4.4490 C   0  0  0  0  0  0  0  0  0  0  0  0
    0.7830   12.2450   -3.0430 C   0  0  0  0  0  0  0  0  0  0  0  0
    1.2960   12.7020   -2.0340 O   0  0  0  0  0  0  0  0  0  0  0  0
   -0.0190   11.1670   -2.9790 O   0  0  0  0  0  0  0  0  0  0  0  0
  1  2  1  0
  2  3  1  0
  2  4  2  0
  3  5  1  0
  3  6  1  0
  4  7  1  0
  6  7  2  0
  6  8  1  0
  7  9  1  0
  5 10  1  0
  8 11  2  0
  9 12  2  0
 11 12  1  0
 10 13  2  0
 10 14  1  0
 14 15  2  0
 13 16  1  0
 15 17  1  0
 16 18  1  0
 15 19  1  0
 16 19  2  0
 18 20  1  0
 18 21  2  0
 20 22  1  0
 22 23  1  0
 23 24  2  0
 23 25  1  0
M  END
>  <comRMSD>  (236) 
0.345341

>  <∆∆G>  (236) 
-4.145756

>  <N_constrained_atoms>  (236) 
24.0

>  <LE>  (236) 
-0.16583

>  <ref_pdb>  (236) 
x0104_0

>  <ref_mols>  (236) 
x0159_0_B_β,x0253_0_A_α

>  <%Rank>  (236) 
4.032258

>  <generation_date>  (236) 
nan

>  <method>  (236) 
nan

>  <submitter_email>  (236) 
nan

>  <original SMILES>  (236) 
Cc1cc(Cn2c(N)nc3ccccc32)cc(C(=O)NCC(=O)O)c1

>  <ref_url>  (236) 
nan

>  <submitter_name>  (236) 
nan

>  <submitter_institution>  (236) 
nan

$$$$
5CMS_0_G_β-x0592_0_A_α
     RDKit          3D

 20 21  0  0  0  0  0  0  0  0999 V2000
   -1.2130   12.8150   -4.0230 O   0  0  0  0  0  0  0  0  0  0  0  0
   -0.9900   14.2070   -3.8420 C   0  0  1  0  0  0  0  0  0  0  0  0
   -0.1610   14.5390   -2.5990 C   0  0  2  0  0  0  0  0  0  0  0  0
   -0.0050   14.6050   -4.9260 C   0  0  2  0  0  0  0  0  0  0  0  0
    0.8300   13.5010   -5.2700 O   0  0  0  0  0  0  0  0  0  0  0  0
   -0.8840   14.6370   -1.2200 C   0  0  0  0  0  0  0  0  0  0  0  0
    0.3850   15.8400   -2.9390 O   0  0  0  0  0  0  0  0  0  0  0  0
    0.7220   15.8160   -4.3390 C   0  0  2  0  0  0  0  0  0  0  0  0
    0.3960   17.1590   -4.9850 C   0  0  0  0  0  0  0  0  0  0  0  0
   -2.3560   14.6760   -1.3330 N   0  0  0  0  0  0  0  0  0  0  0  0
   -3.1540   14.7800   -0.3130 C   0  0  0  0  0  0  0  0  0  0  0  0
   -2.6630   14.8650    0.9600 N   0  0  0  0  0  0  0  0  0  0  0  0
   -4.6040   14.8160   -0.3660 C   0  0  0  0  0  0  0  0  0  0  0  0
   -5.4530   15.1470   -1.4520 C   0  0  0  0  0  0  0  0  0  0  0  0
   -5.4970   14.5290    0.6550 C   0  0  0  0  0  0  0  0  0  0  0  0
   -6.7530   15.0730   -1.1460 N   0  0  0  0  0  0  0  0  0  0  0  0
   -6.7560   14.6960    0.1440 N   0  0  0  0  0  0  0  0  0  0  0  0
   -8.0190   14.5120    0.8400 C   0  0  0  0  0  0  0  0  0  0  0  0
   -7.8230   14.0680    2.2850 C   0  0  0  0  0  0  0  0  0  0  0  0
   -7.0920   15.0340    3.0360 O   0  0  0  0  0  0  0  0  0  0  0  0
  2  1  1  6
  2  3  1  0
  2  4  1  0
  4  5  1  1
  3  6  1  1
  3  7  1  0
  4  8  1  0
  7  8  1  0
  8  9  1  6
  6 10  1  0
 10 11  2  3
 11 12  1  0
 11 13  1  0
 13 14  1  0
 13 15  2  0
 14 16  2  0
 15 17  1  0
 16 17  1  0
 17 18  1  0
 18 19  1  0
 19 20  1  0
M  END
>  <comRMSD>  (237) 
0.33783

>  <∆∆G>  (237) 
-7.607993

>  <N_constrained_atoms>  (237) 
19.0

>  <LE>  (237) 
-0.3804

>  <ref_pdb>  (237) 
x0104_0

>  <ref_mols>  (237) 
x0592_0_A_α

>  <%Rank>  (237) 
4.049417

>  <generation_date>  (237) 
nan

>  <method>  (237) 
nan

>  <submitter_email>  (237) 
nan

>  <original SMILES>  (237) 
CC1OC(CN=C(N)c2cnn(CCO)c2)C(O)C1O

>  <ref_url>  (237) 
nan

>  <submitter_name>  (237) 
nan

>  <submitter_institution>  (237) 
nan

$$$$
x0371_0_A_β-x0628_0_A_α
     RDKit          3D

 24 26  0  0  0  0  0  0  0  0999 V2000
   -8.2490   14.4410    1.7380 C   0  0  0  0  0  0  0  0  0  0  0  0
   -7.0500   14.5980    0.8870 C   0  0  0  0  0  0  0  0  0  0  0  0
   -5.7760   14.6090    1.3990 N   0  0  0  0  0  0  0  0  0  0  0  0
   -7.0290   14.7450   -0.4210 N   0  0  0  0  0  0  0  0  0  0  0  0
   -4.8960   14.7650    0.3620 C   0  0  0  0  0  0  0  0  0  0  0  0
   -5.7060   14.8430   -0.7630 C   0  0  0  0  0  0  0  0  0  0  0  0
   -3.5060   14.8380    0.3110 C   0  0  0  0  0  0  0  0  0  0  0  0
   -5.1170   14.9950   -2.0240 C   0  0  0  0  0  0  0  0  0  0  0  0
   -2.9350   14.9820   -0.9640 C   0  0  0  0  0  0  0  0  0  0  0  0
   -3.7190   15.0570   -2.1350 C   0  0  0  0  0  0  0  0  0  0  0  0
   -3.0950   15.1920   -3.5190 C   0  0  0  0  0  0  0  0  0  0  0  0
   -1.9670   14.1720   -3.8460 C   0  0  0  0  0  0  0  0  0  0  0  0
   -2.3830   12.6890   -4.0240 C   0  0  0  0  0  0  0  0  0  0  0  0
   -1.5950   11.8570   -5.0100 C   0  0  0  0  0  0  0  0  0  0  0  0
   -2.0030   10.7050   -5.5350 N   0  0  0  0  0  0  0  0  0  0  0  0
   -0.3430   12.1290   -5.5300 N   0  0  0  0  0  0  0  0  0  0  0  0
    0.5530   13.2430   -5.2970 C   0  0  0  0  0  0  0  0  0  0  0  0
   -0.9740   10.3220   -6.3600 C   0  0  0  0  0  0  0  0  0  0  0  0
    0.0540   11.1660   -6.3850 N   0  0  0  0  0  0  0  0  0  0  0  0
   -0.9900    9.0780   -7.1570 C   0  0  0  0  0  0  0  0  0  0  0  0
    1.6340   12.9850   -4.2500 C   0  0  0  0  0  0  0  0  0  0  0  0
    1.1390   12.2540   -3.0290 C   0  0  0  0  0  0  0  0  0  0  0  0
    0.4580   11.2380   -2.9980 O   0  0  0  0  0  0  0  0  0  0  0  0
    1.5080   12.8460   -1.8870 O   0  0  0  0  0  0  0  0  0  0  0  0
  1  2  1  0
  2  3  1  0
  2  4  2  0
  3  5  1  0
  4  6  1  0
  5  6  2  0
  5  7  1  0
  6  8  1  0
  7  9  2  0
  8 10  2  0
  9 10  1  0
 10 11  1  0
 11 12  1  0
 12 13  1  0
 13 14  1  0
 14 15  2  0
 14 16  1  0
 16 17  1  0
 15 18  1  0
 16 19  1  0
 18 19  2  0
 18 20  1  0
 17 21  1  0
 21 22  1  0
 22 23  2  0
 22 24  1  0
M  END
>  <comRMSD>  (238) 
0.284557

>  <∆∆G>  (238) 
-8.504901

>  <N_constrained_atoms>  (238) 
22.0

>  <LE>  (238) 
-0.354371

>  <ref_pdb>  (238) 
x0104_0

>  <ref_mols>  (238) 
x0371_0_A_β,x0628_0_A_α

>  <%Rank>  (238) 
4.066575

>  <generation_date>  (238) 
nan

>  <method>  (238) 
nan

>  <submitter_email>  (238) 
nan

>  <original SMILES>  (238) 
Cc1nc(CCCc2ccc3[nH]c(C)nc3c2)n(CCC(=O)O)n1

>  <ref_url>  (238) 
nan

>  <submitter_name>  (238) 
nan

>  <submitter_institution>  (238) 
nan

$$$$
x0104_0_A_α-x0290_0_A_α
     RDKit          3D

 20 21  0  0  0  0  0  0  0  0999 V2000
   -7.7040   15.0010    3.3920 C   0  0  0  0  0  0  0  0  0  0  0  0
   -7.9930   15.3400    4.6830 N   0  0  0  0  0  0  0  0  0  0  0  0
   -9.1410   15.2140    5.3870 C   0  0  0  0  0  0  0  0  0  0  0  0
   -8.4970   14.8010    2.3800 N   0  0  0  0  0  0  0  0  0  0  0  0
   -7.8270   14.4600    1.2320 N   0  0  0  0  0  0  0  0  0  0  0  0
   -6.5640   13.7030    1.3980 C   0  0  0  0  0  0  0  0  0  0  0  0
   -9.3160   15.2350    6.7570 C   0  0  0  0  0  0  0  0  0  0  0  0
  -10.6460   14.9980    4.5830 S   0  0  0  0  0  0  0  0  0  0  0  0
   -5.3510   14.3740    0.7290 C   0  0  0  0  0  0  0  0  0  0  0  0
  -10.6820   15.0730    7.1450 C   0  0  0  0  0  0  0  0  0  0  0  0
  -11.5130   14.9340    6.0560 C   0  0  0  0  0  0  0  0  0  0  0  0
   -5.3980   14.6670   -0.4710 O   0  0  0  0  0  0  0  0  0  0  0  0
   -4.1760   14.6650    1.3870 N   0  0  0  0  0  0  0  0  0  0  0  0
   -2.8550   14.6150    0.9250 C   0  0  0  0  0  0  0  0  0  0  0  0
   -1.8010   14.5540    1.7750 N   0  0  0  0  0  0  0  0  0  0  0  0
   -2.6700   14.6280   -0.4550 C   0  0  0  0  0  0  0  0  0  0  0  0
   -0.5580   14.5070    1.2470 C   0  0  0  0  0  0  0  0  0  0  0  0
   -1.3730   14.5760   -0.9850 C   0  0  0  0  0  0  0  0  0  0  0  0
   -1.1710   14.5870   -2.4710 C   0  0  0  0  0  0  0  0  0  0  0  0
   -0.2920   14.5150   -0.1080 C   0  0  0  0  0  0  0  0  0  0  0  0
  1  2  1  0
  2  3  1  0
  1  4  2  3
  4  5  1  0
  5  6  1  0
  3  7  2  0
  3  8  1  0
  6  9  1  0
  7 10  1  0
  8 11  1  0
 10 11  2  0
  9 12  2  0
  9 13  1  0
 13 14  1  0
 14 15  2  0
 14 16  1  0
 15 17  1  0
 16 18  2  0
 18 19  1  0
 17 20  2  0
 18 20  1  0
M  END
>  <comRMSD>  (239) 
0.50037

>  <∆∆G>  (239) 
-8.040705

>  <N_constrained_atoms>  (239) 
20.0

>  <LE>  (239) 
-0.402035

>  <ref_pdb>  (239) 
x0104_0

>  <ref_mols>  (239) 
x0104_0_A_α,x0290_0_A_α

>  <%Rank>  (239) 
4.083734

>  <generation_date>  (239) 
nan

>  <method>  (239) 
nan

>  <submitter_email>  (239) 
nan

>  <original SMILES>  (239) 
Cc1ccnc(NC(=O)CNN=CNc2cccs2)c1

>  <ref_url>  (239) 
nan

>  <submitter_name>  (239) 
nan

>  <submitter_institution>  (239) 
nan

$$$$
x0290_0_A_α-x0104_0_A_α
     RDKit          3D

 20 21  0  0  0  0  0  0  0  0999 V2000
   -7.6010   13.9170    1.2240 N   0  0  0  0  0  0  0  0  0  0  0  0
   -8.4020   14.9430    1.6130 C   0  0  0  0  0  0  0  0  0  0  0  0
   -8.6720   15.4290    2.8400 C   0  0  0  0  0  0  0  0  0  0  0  0
   -6.2880   13.7980    1.8420 C   0  0  0  0  0  0  0  0  0  0  0  0
   -5.2060   14.2700    0.9000 C   0  0  0  0  0  0  0  0  0  0  0  0
   -5.4060   14.3110   -0.3240 O   0  0  0  0  0  0  0  0  0  0  0  0
   -3.9970   14.6550    1.3610 N   0  0  0  0  0  0  0  0  0  0  0  0
   -8.2950   15.1120    4.1370 N   0  0  0  0  0  0  0  0  0  0  0  0
   -2.7360   14.6220    0.8080 C   0  0  0  0  0  0  0  0  0  0  0  0
   -9.1890   15.0670    5.1710 C   0  0  0  0  0  0  0  0  0  0  0  0
   -1.7430   14.5510    1.7210 N   0  0  0  0  0  0  0  0  0  0  0  0
   -2.4930   14.6530   -0.5500 C   0  0  0  0  0  0  0  0  0  0  0  0
   -9.0290   15.1020    6.5450 C   0  0  0  0  0  0  0  0  0  0  0  0
  -10.8590   14.9520    4.7610 S   0  0  0  0  0  0  0  0  0  0  0  0
   -0.4770   14.5070    1.2600 C   0  0  0  0  0  0  0  0  0  0  0  0
   -1.1770   14.6080   -1.0120 C   0  0  0  0  0  0  0  0  0  0  0  0
  -10.2780   15.0340    7.2490 C   0  0  0  0  0  0  0  0  0  0  0  0
  -11.3520   14.9480    6.3930 C   0  0  0  0  0  0  0  0  0  0  0  0
   -0.9030   14.6440   -2.4850 C   0  0  0  0  0  0  0  0  0  0  0  0
   -0.1450   14.5330   -0.0810 C   0  0  0  0  0  0  0  0  0  0  0  0
  1  2  1  0
  2  3  2  3
  1  4  1  0
  4  5  1  0
  5  6  2  0
  5  7  1  0
  3  8  1  0
  7  9  1  0
  8 10  1  0
  9 11  2  0
  9 12  1  0
 10 13  2  0
 10 14  1  0
 11 15  1  0
 12 16  2  0
 13 17  1  0
 14 18  1  0
 17 18  2  0
 16 19  1  0
 15 20  2  0
 16 20  1  0
M  END
>  <comRMSD>  (240) 
0.465766

>  <∆∆G>  (240) 
-6.642003

>  <N_constrained_atoms>  (240) 
20.0

>  <LE>  (240) 
-0.3321

>  <ref_pdb>  (240) 
x0104_0

>  <ref_mols>  (240) 
x0290_0_A_α,x0104_0_A_α

>  <%Rank>  (240) 
4.100892

>  <generation_date>  (240) 
nan

>  <method>  (240) 
nan

>  <submitter_email>  (240) 
nan

>  <original SMILES>  (240) 
Cc1ccnc(NC(=O)CNC=CNc2cccs2)c1

>  <ref_url>  (240) 
nan

>  <submitter_name>  (240) 
nan

>  <submitter_institution>  (240) 
nan

$$$$
x0676_0_B_α-x0253_0_A_α
     RDKit          3D

 28 30  0  0  0  0  0  0  0  0999 V2000
    5.4610    6.5840   -9.1280 C   0  0  0  0  0  0  0  0  0  0  0  0
    4.5440    7.2320  -10.1070 C   0  0  0  0  0  0  0  0  0  0  0  0
    4.9720    7.7170  -11.2310 N   0  0  0  0  0  0  0  0  0  0  0  0
    3.0470    7.3870   -9.8830 C   0  0  0  0  0  0  0  0  0  0  0  0
    2.7160    8.2360  -11.1020 C   0  0  0  0  0  0  0  0  0  0  0  0
    3.8580    8.2590  -11.8540 N   0  0  0  0  0  0  0  0  0  0  0  0
    1.6600    8.8590  -11.4910 N   0  0  0  0  0  0  0  0  0  0  0  0
    4.0200    9.2460  -12.8640 C   0  0  0  0  0  0  0  0  0  0  0  0
    0.3240    9.0140  -10.9590 C   0  0  0  0  0  0  0  0  0  0  0  0
    3.1310   10.3480  -12.8970 C   0  0  0  0  0  0  0  0  0  0  0  0
    5.0060    9.2140  -13.8470 C   0  0  0  0  0  0  0  0  0  0  0  0
    3.2180   11.3590  -13.8510 C   0  0  0  0  0  0  0  0  0  0  0  0
    5.0990   10.2280  -14.8130 C   0  0  0  0  0  0  0  0  0  0  0  0
    0.1260    9.4190   -9.5340 C   0  0  0  0  0  0  0  0  0  0  0  0
    4.2100   11.2970  -14.8150 C   0  0  0  0  0  0  0  0  0  0  0  0
    0.8110   10.4370   -8.8180 C   0  0  0  0  0  0  0  0  0  0  0  0
   -0.8550    8.6790   -8.9050 C   0  0  0  0  0  0  0  0  0  0  0  0
   -1.1920    8.8970   -7.5900 C   0  0  0  0  0  0  0  0  0  0  0  0
    0.4710   10.6670   -7.4620 C   0  0  0  0  0  0  0  0  0  0  0  0
   -2.2620    8.0650   -6.9590 C   0  0  0  0  0  0  0  0  0  0  0  0
    1.0840   11.6860   -6.5500 C   0  0  0  0  0  0  0  0  0  0  0  0
   -0.5300    9.8860   -6.8720 C   0  0  0  0  0  0  0  0  0  0  0  0
    0.3710   12.0570   -5.4430 N   0  0  0  0  0  0  0  0  0  0  0  0
    2.1790   12.1560   -6.7360 O   0  0  0  0  0  0  0  0  0  0  0  0
    1.0550   12.8570   -4.4430 C   0  0  0  0  0  0  0  0  0  0  0  0
    0.8380   12.2920   -3.0520 C   0  0  0  0  0  0  0  0  0  0  0  0
    1.3340   12.7210   -2.0250 O   0  0  0  0  0  0  0  0  0  0  0  0
    0.0110   11.2290   -3.0190 O   0  0  0  0  0  0  0  0  0  0  0  0
  1  2  1  0
  2  3  2  0
  2  4  1  0
  4  5  1  0
  3  6  1  0
  5  6  1  0
  5  7  2  3
  6  8  1  0
  7  9  1  0
  8 10  2  0
  8 11  1  0
 10 12  1  0
 11 13  2  0
  9 14  1  0
 12 15  2  0
 13 15  1  0
 14 16  2  0
 14 17  1  0
 17 18  2  0
 16 19  1  0
 18 20  1  0
 19 21  1  0
 18 22  1  0
 19 22  2  0
 21 23  1  0
 21 24  2  0
 23 25  1  0
 25 26  1  0
 26 27  2  0
 26 28  1  0
M  END
>  <comRMSD>  (241) 
0.427016

>  <∆∆G>  (241) 
-6.040098

>  <N_constrained_atoms>  (241) 
27.0

>  <LE>  (241) 
-0.215718

>  <ref_pdb>  (241) 
x0104_0

>  <ref_mols>  (241) 
x0676_0_B_α,x0253_0_A_α

>  <%Rank>  (241) 
4.118051

>  <generation_date>  (241) 
nan

>  <method>  (241) 
nan

>  <submitter_email>  (241) 
nan

>  <original SMILES>  (241) 
CC1=NN(c2ccccc2)C(=NCc2cc(C)cc(C(=O)NCC(=O)O)c2)C1

>  <ref_url>  (241) 
nan

>  <submitter_name>  (241) 
nan

>  <submitter_institution>  (241) 
nan

$$$$
x0574_0_A_α-x1015_0_A_α
     RDKit          3D

 28 31  0  0  0  0  0  0  0  0999 V2000
    0.0080   13.9560    1.6840 N   0  0  0  0  0  0  0  0  0  0  0  0
   -1.1020   14.4720    1.0810 C   0  0  0  0  0  0  0  0  0  0  0  0
   -2.0040   14.8370    1.8900 N   0  0  0  0  0  0  0  0  0  0  0  0
   -1.2740   14.5320   -0.7860 S   0  0  0  0  0  0  0  0  0  0  0  0
    0.4050   14.2240   -0.2490 C   0  0  0  0  0  0  0  0  0  0  0  0
   -3.1010   15.3630    1.1690 C   0  0  1  0  0  0  0  0  0  0  0  0
   -2.8800   15.0330   -0.2260 C   0  0  0  0  0  0  0  0  0  0  0  0
    0.9460   14.4810   -1.5790 N   0  0  0  0  0  0  0  0  0  0  0  0
   -4.4550   15.0340    1.5960 C   0  0  0  0  0  0  0  0  0  0  0  0
   -3.9570   15.2070   -1.1920 C   0  0  0  0  0  0  0  0  0  0  0  0
   -5.4560   14.9300    0.7160 C   0  0  0  0  0  0  0  0  0  0  0  0
   -5.1890   15.1480   -0.6900 C   0  0  0  0  0  0  0  0  0  0  0  0
    0.4870   13.6570   -2.4410 C   0  0  0  0  0  0  0  0  0  0  0  0
   -6.7660   14.6440    0.9860 O   0  0  0  0  0  0  0  0  0  0  0  0
    0.5690   13.4770   -3.9500 C   0  0  2  0  0  0  0  0  0  0  0  0
   -0.2750   12.6540   -1.9790 N   0  0  0  0  0  0  0  0  0  0  0  0
   -7.1200   14.5640    2.3640 C   0  0  0  0  0  0  0  0  0  0  0  0
   -0.5320   14.3260   -4.6020 C   0  0  0  0  0  0  0  0  0  0  0  0
    0.2410   12.0440   -3.9920 N   0  0  0  0  0  0  0  0  0  0  0  0
    0.1070   11.5740   -2.6850 C   0  0  0  0  0  0  0  0  0  0  0  0
    0.2900   10.4530   -2.2200 O   0  0  0  0  0  0  0  0  0  0  0  0
   -0.2660   11.3540   -5.1170 C   0  0  0  0  0  0  0  0  0  0  0  0
    0.2050   11.5820   -6.4140 C   0  0  0  0  0  0  0  0  0  0  0  0
   -1.2750   10.3900   -4.9450 C   0  0  0  0  0  0  0  0  0  0  0  0
   -0.3090   10.8700   -7.5020 C   0  0  0  0  0  0  0  0  0  0  0  0
   -1.7930    9.6760   -6.0270 C   0  0  0  0  0  0  0  0  0  0  0  0
   -1.3050    9.9180   -7.3030 C   0  0  0  0  0  0  0  0  0  0  0  0
   -1.9360    9.0360   -8.6350 Cl  0  0  0  0  0  0  0  0  0  0  0  0
  1  2  1  0
  2  3  2  0
  2  4  1  0
  4  5  1  0
  3  6  1  0
  4  7  2  0
  6  7  1  0
  5  8  1  0
  6  9  1  1
  7 10  1  0
  9 11  2  0
 10 12  2  0
 11 12  1  0
  8 13  2  3
 11 14  1  0
 13 15  1  0
 13 16  1  0
 14 17  1  0
 15 18  1  6
 15 19  1  0
 16 20  1  0
 19 20  1  0
 20 21  2  0
 19 22  1  0
 22 23  2  0
 22 24  1  0
 23 25  1  0
 24 26  2  0
 25 27  2  0
 26 27  1  0
 27 28  1  0
M  END
>  <comRMSD>  (242) 
0.505731

>  <∆∆G>  (242) 
-10.427828

>  <N_constrained_atoms>  (242) 
27.0

>  <LE>  (242) 
-0.372422

>  <ref_pdb>  (242) 
x0104_0

>  <ref_mols>  (242) 
x0574_0_A_α,x1015_0_A_α

>  <%Rank>  (242) 
4.135209

>  <generation_date>  (242) 
nan

>  <method>  (242) 
nan

>  <submitter_email>  (242) 
nan

>  <original SMILES>  (242) 
COC1=CC2N=C(N)S(CN=C3NC(=O)N(c4ccc(Cl)cc4)C3C)=C2C=C1

>  <ref_url>  (242) 
nan

>  <submitter_name>  (242) 
nan

>  <submitter_institution>  (242) 
nan

$$$$
x0905_0_B_α-x0905_1_B_α
     RDKit          3D

  7  7  0  0  0  0  0  0  0  0999 V2000
   14.0400   19.5890   11.6040 O   0  0  0  0  0  0  0  0  0  0  0  0
   13.4040   20.2480   12.6010 C   0  0  0  0  0  0  0  0  0  0  0  0
   12.5440   19.5080   13.3160 N   0  0  0  0  0  0  0  0  0  0  0  0
   13.6740   21.5880   12.8090 C   0  0  0  0  0  0  0  0  0  0  0  0
   11.9060   20.1560   14.3100 C   0  0  0  0  0  0  0  0  0  0  0  0
   13.0030   22.2220   13.8390 C   0  0  0  0  0  0  0  0  0  0  0  0
   12.0990   21.5000   14.6100 C   0  0  0  0  0  0  0  0  0  0  0  0
  1  2  1  0
  2  3  2  0
  2  4  1  0
  3  5  1  0
  4  6  2  0
  5  7  2  0
  6  7  1  0
M  END
>  <comRMSD>  (243) 
0.200911

>  <∆∆G>  (243) 
-3.662518

>  <N_constrained_atoms>  (243) 
7.0

>  <LE>  (243) 
-0.523217

>  <ref_pdb>  (243) 
x0104_0

>  <ref_mols>  (243) 
x0905_0_B_α,x0905_1_B_α

>  <%Rank>  (243) 
4.152368

>  <generation_date>  (243) 
nan

>  <method>  (243) 
nan

>  <submitter_email>  (243) 
nan

>  <original SMILES>  (243) 
Oc1ccccn1

>  <ref_url>  (243) 
nan

>  <submitter_name>  (243) 
nan

>  <submitter_institution>  (243) 
nan

$$$$
x0685_0_A_α-x0253_0_A_α
     RDKit          3D

 28 29  0  0  0  0  0  0  0  0999 V2000
   -6.0560   14.9320    2.7270 N   0  0  0  0  0  0  0  0  0  0  0  0
   -7.4840   14.6640    2.7150 C   0  0  0  0  0  0  0  0  0  0  0  0
   -7.7160   13.1960    3.0230 C   0  0  0  0  0  0  0  0  0  0  0  0
   -5.3760   14.9580    1.5110 C   0  0  0  0  0  0  0  0  0  0  0  0
   -3.9950   15.0560    1.4450 C   0  0  0  0  0  0  0  0  0  0  0  0
   -6.1530   14.8950    0.4090 N   0  0  0  0  0  0  0  0  0  0  0  0
   -3.3750   15.1000    0.2050 C   0  0  0  0  0  0  0  0  0  0  0  0
   -5.5270   14.9430   -0.7900 C   0  0  0  0  0  0  0  0  0  0  0  0
   -4.1580   15.0470   -0.9400 C   0  0  0  0  0  0  0  0  0  0  0  0
   -3.5510   15.0980   -2.2200 C   0  0  0  0  0  0  0  0  0  0  0  0
   -2.9900   15.1370   -3.2700 C   0  0  0  0  0  0  0  0  0  0  0  0
   -2.2290   15.1530   -4.5200 C   0  0  0  0  0  0  0  0  0  0  0  0
   -1.0710   14.1530   -4.4790 C   0  0  0  0  0  0  0  0  0  0  0  0
   -0.8330   13.5230   -3.0800 C   0  0  0  0  0  0  0  0  0  0  0  0
    0.3830   12.5760   -3.0250 C   0  0  0  0  0  0  0  0  0  0  0  0
    1.2460   12.9290   -1.9570 O   0  0  0  0  0  0  0  0  0  0  0  0
    0.0120   11.2270   -2.7680 O   0  0  0  0  0  0  0  0  0  0  0  0
    1.1290   12.6140   -4.3780 C   0  0  0  0  0  0  0  0  0  0  0  0
    0.4280   11.9420   -5.4570 N   0  0  0  0  0  0  0  0  0  0  0  0
    1.1450   11.6710   -6.5830 C   0  0  0  0  0  0  0  0  0  0  0  0
    2.2570   12.1260   -6.6920 O   0  0  0  0  0  0  0  0  0  0  0  0
    0.5280   10.7760   -7.6100 C   0  0  0  0  0  0  0  0  0  0  0  0
   -0.4460    9.8730   -7.1700 C   0  0  0  0  0  0  0  0  0  0  0  0
    0.8710   10.7940   -8.9720 C   0  0  0  0  0  0  0  0  0  0  0  0
   -1.0710    9.0010   -8.0690 C   0  0  0  0  0  0  0  0  0  0  0  0
    0.2550    9.9300   -9.8700 C   0  0  0  0  0  0  0  0  0  0  0  0
   -2.1130    8.0410   -7.5800 C   0  0  0  0  0  0  0  0  0  0  0  0
   -0.7130    9.0360   -9.4230 C   0  0  0  0  0  0  0  0  0  0  0  0
  1  2  1  0
  2  3  1  0
  1  4  1  0
  4  5  2  0
  4  6  1  0
  5  7  1  0
  6  8  2  0
  7  9  2  0
  8  9  1  0
  9 10  1  0
 10 11  3  0
 11 12  1  0
 12 13  1  0
 13 14  1  0
 14 15  1  0
 15 16  1  0
 15 17  1  0
 15 18  1  0
 18 19  1  0
 19 20  1  0
 20 21  2  0
 20 22  1  0
 22 23  2  0
 22 24  1  0
 23 25  1  0
 24 26  2  0
 25 27  1  0
 25 28  2  0
 26 28  1  0
M  END
>  <comRMSD>  (244) 
0.2236

>  <∆∆G>  (244) 
-7.824541

>  <N_constrained_atoms>  (244) 
25.0

>  <LE>  (244) 
-0.279448

>  <ref_pdb>  (244) 
x0104_0

>  <ref_mols>  (244) 
x0685_0_A_α,x0253_0_A_α

>  <%Rank>  (244) 
4.169526

>  <generation_date>  (244) 
nan

>  <method>  (244) 
nan

>  <submitter_email>  (244) 
nan

>  <original SMILES>  (244) 
CCNc1ccc(C#CCCCC(O)(O)CNC(=O)c2cccc(C)c2)cn1

>  <ref_url>  (244) 
nan

>  <submitter_name>  (244) 
nan

>  <submitter_institution>  (244) 
nan

$$$$
x0465_0_A_α-x0421_0_A_α
     RDKit          3D

 26 28  0  0  0  0  0  0  0  0999 V2000
    2.0310   13.2300   -4.3170 C   0  0  0  0  0  0  0  0  0  0  0  0
    0.7820   12.3510   -4.1580 C   0  0  1  0  0  0  0  0  0  0  0  0
    0.6130   11.4660   -5.2880 O   0  0  0  0  0  0  0  0  0  0  0  0
    0.5760   11.7250   -2.7410 C   0  0  0  0  0  0  0  0  0  0  0  0
    0.5040   12.3880   -1.6300 N   0  0  0  0  0  0  0  0  0  0  0  0
    0.4640   10.3690   -2.7070 O   0  0  0  0  0  0  0  0  0  0  0  0
   -0.5320   10.7710   -5.5760 C   0  0  0  0  0  0  0  0  0  0  0  0
    0.6020   13.8590   -1.5750 C   0  0  0  0  0  0  0  0  0  0  0  0
   -0.6650    9.7660   -6.5460 C   0  0  0  0  0  0  0  0  0  0  0  0
   -1.6560   11.1110   -4.8190 C   0  0  0  0  0  0  0  0  0  0  0  0
    0.3670    9.3880   -7.3110 F   0  0  0  0  0  0  0  0  0  0  0  0
   -0.7020   14.4330   -1.0050 C   0  0  0  0  0  0  0  0  0  0  0  0
   -1.8780    9.1160   -6.7550 C   0  0  0  0  0  0  0  0  0  0  0  0
   -2.8810   10.4600   -5.0280 C   0  0  0  0  0  0  0  0  0  0  0  0
   -1.6510   14.7350   -2.0860 N   0  0  0  0  0  0  0  0  0  0  0  0
   -2.9920    9.4620   -5.9940 C   0  0  0  0  0  0  0  0  0  0  0  0
   -2.9080   14.9510   -1.8870 C   0  0  0  0  0  0  0  0  0  0  0  0
   -3.8430   15.2360   -2.8470 N   0  0  0  0  0  0  0  0  0  0  0  0
   -3.4930   14.9110   -0.5360 C   0  0  0  0  0  0  0  0  0  0  0  0
   -2.8360   15.0190    0.6870 C   0  0  0  0  0  0  0  0  0  0  0  0
   -4.8510   14.7520   -0.3100 N   0  0  0  0  0  0  0  0  0  0  0  0
   -3.8170   14.9210    1.6330 N   0  0  0  0  0  0  0  0  0  0  0  0
   -5.0000   14.7610    0.9940 C   0  0  0  0  0  0  0  0  0  0  0  0
   -6.3690   14.6030    1.7060 C   0  0  0  0  0  0  0  0  0  0  0  0
   -7.6590   14.6360    0.9210 C   0  0  0  0  0  0  0  0  0  0  0  0
   -7.1730   13.3450    1.5220 C   0  0  0  0  0  0  0  0  0  0  0  0
  2  1  1  1
  2  3  1  0
  2  4  1  0
  4  5  2  3
  4  6  1  0
  3  7  1  0
  5  8  1  0
  7  9  2  0
  7 10  1  0
  9 11  1  0
  8 12  1  0
  9 13  1  0
 10 14  2  0
 12 15  1  0
 13 16  2  0
 14 16  1  0
 15 17  2  3
 17 18  1  0
 17 19  1  0
 19 20  2  0
 19 21  1  0
 20 22  1  0
 21 23  2  0
 22 23  1  0
 23 24  1  0
 24 25  1  0
 24 26  1  0
 25 26  1  0
M  END
>  <comRMSD>  (245) 
0.329752

>  <∆∆G>  (245) 
-8.792263

>  <N_constrained_atoms>  (245) 
24.0

>  <LE>  (245) 
-0.338164

>  <ref_pdb>  (245) 
x0104_0

>  <ref_mols>  (245) 
x0465_0_A_α,x0421_0_A_α

>  <%Rank>  (245) 
4.186685

>  <generation_date>  (245) 
nan

>  <method>  (245) 
nan

>  <submitter_email>  (245) 
nan

>  <original SMILES>  (245) 
C[C@@H](Oc1ccccc1F)C(O)=NCCN=C(N)c1c[nH]c(C2CC2)n1

>  <ref_url>  (245) 
nan

>  <submitter_name>  (245) 
nan

>  <submitter_institution>  (245) 
nan

$$$$
x0253_0_A_α-x0766_0_A_α
     RDKit          3D

 24 26  0  0  0  0  0  0  0  0999 V2000
    0.6120   11.3960   -5.3880 N   0  0  0  0  0  0  0  0  0  0  0  0
    1.2070   11.4400   -6.5960 C   0  0  0  0  0  0  0  0  0  0  0  0
    2.2130   12.0860   -6.7450 O   0  0  0  0  0  0  0  0  0  0  0  0
    1.4760   11.3490   -4.2440 C   0  0  0  0  0  0  0  0  0  0  0  0
    0.9040   12.1940   -3.1290 C   0  0  0  0  0  0  0  0  0  0  0  0
    0.5580   10.6420   -7.6660 C   0  0  0  0  0  0  0  0  0  0  0  0
    1.8730   12.6980   -2.2340 O   0  0  0  0  0  0  0  0  0  0  0  0
    0.0600   11.3270   -2.4140 O   0  0  0  0  0  0  0  0  0  0  0  0
   -0.4260    9.7390   -7.2560 C   0  0  0  0  0  0  0  0  0  0  0  0
    0.8720   10.7450   -9.0290 C   0  0  0  0  0  0  0  0  0  0  0  0
    0.1550   13.3570   -3.8070 C   0  0  2  0  0  0  0  0  0  0  0  0
   -1.0980    8.9420   -8.1840 C   0  0  0  0  0  0  0  0  0  0  0  0
    0.2060    9.9530   -9.9590 C   0  0  0  0  0  0  0  0  0  0  0  0
    0.9760   13.8930   -5.0080 C   0  0  0  0  0  0  0  0  0  0  0  0
   -0.0210   14.5850   -2.8850 C   0  0  1  0  0  0  0  0  0  0  0  0
   -2.1520    7.9800   -7.7280 C   0  0  0  0  0  0  0  0  0  0  0  0
   -0.7740    9.0550   -9.5390 C   0  0  0  0  0  0  0  0  0  0  0  0
    1.4370   15.2850   -4.6120 C   0  0  0  0  0  0  0  0  0  0  0  0
    0.2940   15.7910   -3.7690 C   0  0  0  0  0  0  0  0  0  0  0  0
   -1.3370   14.6740   -2.1550 C   0  0  0  0  0  0  0  0  0  0  0  0
   -2.5980   14.7300   -2.7290 C   0  0  0  0  0  0  0  0  0  0  0  0
   -1.4410   14.7150   -0.7210 C   0  0  0  0  0  0  0  0  0  0  0  0
   -2.7390   14.8020   -0.2800 C   0  0  0  0  0  0  0  0  0  0  0  0
   -3.8520   14.8350   -1.5710 S   0  0  0  0  0  0  0  0  0  0  0  0
  1  2  1  0
  2  3  2  0
  1  4  1  0
  4  5  1  0
  2  6  1  0
  5  7  1  0
  5  8  1  0
  6  9  2  0
  6 10  1  0
 11  5  1  1
  9 12  1  0
 10 13  2  0
 11 14  1  0
 11 15  1  0
 12 16  1  0
 12 17  2  0
 13 17  1  0
 14 18  1  0
 15 19  1  0
 18 19  1  0
 15 20  1  6
 20 21  2  0
 20 22  1  0
 22 23  2  0
 21 24  1  0
 23 24  1  0
M  END
>  <comRMSD>  (246) 
0.530088

>  <∆∆G>  (246) 
-7.701765

>  <N_constrained_atoms>  (246) 
24.0

>  <LE>  (246) 
-0.320907

>  <ref_pdb>  (246) 
x0104_0

>  <ref_mols>  (246) 
x0253_0_A_α,x0766_0_A_α

>  <%Rank>  (246) 
4.203844

>  <generation_date>  (246) 
nan

>  <method>  (246) 
nan

>  <submitter_email>  (246) 
nan

>  <original SMILES>  (246) 
Cc1cccc(C(=O)NCC(O)(O)C2CCCC2c2ccsc2)c1

>  <ref_url>  (246) 
nan

>  <submitter_name>  (246) 
nan

>  <submitter_institution>  (246) 
nan

$$$$
5CMS_0_R_γ-1VHU_0_A_α
     RDKit          3D

 21 22  0  0  0  0  0  0  0  0999 V2000
   -0.3730   12.5350   -3.7330 O   0  0  0  0  0  0  0  0  0  0  0  0
    0.4330   13.7070   -3.8290 C   0  0  2  0  0  0  0  0  0  0  0  0
    0.0460   14.7830   -2.8270 C   0  0  0  0  0  0  0  0  0  0  0  0
    0.2400   14.3980   -5.1700 C   0  0  2  0  0  0  0  0  0  0  0  0
    1.4100   14.1080   -5.9130 O   0  0  0  0  0  0  0  0  0  0  0  0
    0.4700   16.0110   -3.4380 O   0  0  0  0  0  0  0  0  0  0  0  0
    0.0230   15.9020   -4.7930 C   0  0  1  0  0  0  0  0  0  0  0  0
    0.5930   16.9730   -5.7470 C   0  0  0  0  0  0  0  0  0  0  0  0
    0.5420   18.4260   -5.2990 C   0  0  0  0  0  0  0  0  0  0  0  0
   -0.3940   19.1690   -6.1250 O   0  0  0  0  0  0  0  0  0  0  0  0
   -0.0240   19.8370   -7.5670 S   0  0  0  0  0  0  0  0  0  0  0  0
    0.2920   18.7080   -8.6540 O   0  0  0  0  0  0  0  0  0  0  0  0
    1.1600   20.9290   -7.4960 O   0  0  0  0  0  0  0  0  0  0  0  0
   -1.5030   20.6400   -8.1490 C   0  0  0  0  0  0  0  0  0  0  0  0
   -1.9290   21.9570   -7.5390 C   0  0  0  0  0  0  0  0  0  0  0  0
   -3.3200   22.4180   -7.6860 N   0  0  0  0  0  0  0  0  0  0  0  0
   -3.6590   22.8020   -9.0540 C   0  0  0  0  0  0  0  0  0  0  0  0
   -3.7090   23.4950   -6.7740 C   0  0  0  0  0  0  0  0  0  0  0  0
   -5.1460   23.1210   -9.1830 C   0  0  0  0  0  0  0  0  0  0  0  0
   -5.1780   23.8670   -6.9650 C   0  0  0  0  0  0  0  0  0  0  0  0
   -5.4770   24.2080   -8.3240 O   0  0  0  0  0  0  0  0  0  0  0  0
  2  1  1  6
  2  3  1  0
  2  4  1  0
  4  5  1  6
  3  6  1  0
  4  7  1  0
  6  7  1  0
  7  8  1  6
  8  9  1  0
  9 10  1  0
 11 10  1  0
 11 12  1  0
 11 13  1  0
 11 14  1  0
 14 15  1  0
 15 16  1  0
 16 17  1  0
 16 18  1  0
 17 19  1  0
 18 20  1  0
 19 21  1  0
 20 21  1  0
M  END
>  <comRMSD>  (247) 
0.467122

>  <∆∆G>  (247) 
-12.188249

>  <N_constrained_atoms>  (247) 
20.0

>  <LE>  (247) 
-0.580393

>  <ref_pdb>  (247) 
x0104_0

>  <ref_mols>  (247) 


>  <%Rank>  (247) 
4.221002

>  <generation_date>  (247) 
nan

>  <method>  (247) 
nan

>  <submitter_email>  (247) 
nan

>  <original SMILES>  (247) 
OC1COC(CCOS(O)(O)CCN2CCOCC2)C1O

>  <ref_url>  (247) 
nan

>  <submitter_name>  (247) 
nan

>  <submitter_institution>  (247) 
nan

$$$$
x0628_0_A_α-x0438_0_A_α
     RDKit          3D

 28 30  0  0  0  0  0  0  0  0999 V2000
   -1.1210    9.2220   -7.1730 C   0  0  0  0  0  0  0  0  0  0  0  0
   -1.0430   10.4130   -6.3050 C   0  0  0  0  0  0  0  0  0  0  0  0
   -2.0000   10.7200   -5.3590 N   0  0  0  0  0  0  0  0  0  0  0  0
   -0.0290   11.2820   -6.3740 N   0  0  0  0  0  0  0  0  0  0  0  0
   -0.3650   12.1750   -5.4190 N   0  0  0  0  0  0  0  0  0  0  0  0
   -1.5580   11.8430   -4.7970 C   0  0  0  0  0  0  0  0  0  0  0  0
   -2.2320   12.6070   -3.6740 C   0  0  0  0  0  0  0  0  0  0  0  0
    0.5170   13.2930   -5.1840 C   0  0  0  0  0  0  0  0  0  0  0  0
    1.6780   12.9450   -4.2630 C   0  0  0  0  0  0  0  0  0  0  0  0
   -2.9680   13.9180   -4.0520 C   0  0  0  0  0  0  0  0  0  0  0  0
    1.1420   12.2920   -3.0270 C   0  0  0  0  0  0  0  0  0  0  0  0
   -2.8210   15.0890   -3.0310 C   0  0  0  0  0  0  0  0  0  0  0  0
    0.6810   11.1700   -2.9400 O   0  0  0  0  0  0  0  0  0  0  0  0
    1.2170   13.0830   -1.9510 O   0  0  0  0  0  0  0  0  0  0  0  0
   -3.6910   14.9600   -1.7740 C   0  0  0  0  0  0  0  0  0  0  0  0
   -5.0790   14.7970   -1.8960 C   0  0  0  0  0  0  0  0  0  0  0  0
   -3.1020   14.9960   -0.4870 C   0  0  0  0  0  0  0  0  0  0  0  0
   -5.8190   14.6540   -0.7160 C   0  0  0  0  0  0  0  0  0  0  0  0
   -3.8750   14.8630    0.6830 C   0  0  0  0  0  0  0  0  0  0  0  0
   -7.1610   14.4580   -0.4920 N   0  0  0  0  0  0  0  0  0  0  0  0
   -5.2600   14.6800    0.5510 C   0  0  0  0  0  0  0  0  0  0  0  0
   -7.3680   14.3570    0.8640 C   0  0  0  0  0  0  0  0  0  0  0  0
   -6.2330   14.5030    1.5130 N   0  0  0  0  0  0  0  0  0  0  0  0
   -8.7170   14.0960    1.4490 C   0  0  0  0  0  0  0  0  0  0  0  0
   -9.3170   15.3560    2.5540 S   0  0  0  0  0  0  0  0  0  0  0  0
   -8.0960   15.5290    3.8510 C   0  0  0  0  0  0  0  0  0  0  0  0
  -10.5080   14.8070    3.1710 O   0  0  0  0  0  0  0  0  0  0  0  0
   -9.4310   16.5880    1.7980 O   0  0  0  0  0  0  0  0  0  0  0  0
  1  2  1  0
  2  3  1  0
  2  4  2  0
  4  5  1  0
  3  6  2  0
  5  6  1  0
  6  7  1  0
  5  8  1  0
  8  9  1  0
  7 10  1  0
  9 11  1  0
 10 12  1  0
 11 13  2  0
 11 14  1  0
 12 15  1  0
 15 16  2  0
 15 17  1  0
 16 18  1  0
 17 19  2  0
 18 20  1  0
 18 21  2  0
 19 21  1  0
 20 22  1  0
 21 23  1  0
 22 23  2  0
 22 24  1  0
 25 24  1  0
 25 26  1  0
 25 27  2  0
 25 28  2  0
M  END
>  <comRMSD>  (248) 
0.287008

>  <∆∆G>  (248) 
-4.439135

>  <N_constrained_atoms>  (248) 
26.0

>  <LE>  (248) 
-0.158541

>  <ref_pdb>  (248) 
x0104_0

>  <ref_mols>  (248) 
x0628_0_A_α,x0438_0_A_α

>  <%Rank>  (248) 
4.238161

>  <generation_date>  (248) 
nan

>  <method>  (248) 
nan

>  <submitter_email>  (248) 
nan

>  <original SMILES>  (248) 
Cc1nc(CCCc2ccc3nc(CS(C)(=O)=O)[nH]c3c2)n(CCC(=O)O)n1

>  <ref_url>  (248) 
nan

>  <submitter_name>  (248) 
nan

>  <submitter_institution>  (248) 
nan

$$$$
x0465_0_A_α-x0626_0_A_α
     RDKit          3D

 26 27  0  0  0  0  0  0  0  0999 V2000
    2.3260   13.0090   -5.0720 C   0  0  0  0  0  0  0  0  0  0  0  0
    0.9370   12.4480   -4.8710 C   0  0  1  0  0  0  0  0  0  0  0  0
    0.6290   11.3440   -5.7080 O   0  0  0  0  0  0  0  0  0  0  0  0
    0.6130   12.3030   -3.4050 C   0  0  0  0  0  0  0  0  0  0  0  0
    0.4870   13.3580   -2.7090 N   0  0  0  0  0  0  0  0  0  0  0  0
    0.4840   11.0380   -2.9280 O   0  0  0  0  0  0  0  0  0  0  0  0
   -0.5970   10.7570   -5.7330 C   0  0  0  0  0  0  0  0  0  0  0  0
    0.1820   13.1670   -1.3210 C   0  0  0  0  0  0  0  0  0  0  0  0
   -0.7070    9.6720   -6.6110 C   0  0  0  0  0  0  0  0  0  0  0  0
   -1.7150   11.1250   -4.9860 C   0  0  0  0  0  0  0  0  0  0  0  0
    0.3470    9.2920   -7.3490 F   0  0  0  0  0  0  0  0  0  0  0  0
    0.5810   14.4450   -0.6000 C   0  0  0  0  0  0  0  0  0  0  0  0
   -1.8940    8.9650   -6.7470 C   0  0  0  0  0  0  0  0  0  0  0  0
   -2.9140   10.4170   -5.1200 C   0  0  0  0  0  0  0  0  0  0  0  0
   -0.1130   14.5590    0.7530 C   0  0  0  0  0  0  0  0  0  0  0  0
   -3.0050    9.3380   -5.9980 C   0  0  0  0  0  0  0  0  0  0  0  0
   -1.5550   14.6830    0.4660 C   0  0  0  0  0  0  0  0  0  0  0  0
   -2.4950   14.7000    1.4770 N   0  0  0  0  0  0  0  0  0  0  0  0
   -2.0520   14.7870   -0.8160 C   0  0  0  0  0  0  0  0  0  0  0  0
   -3.6850   14.8240    0.9110 C   0  0  0  0  0  0  0  0  0  0  0  0
   -3.7460   14.9240   -0.7910 S   0  0  0  0  0  0  0  0  0  0  0  0
   -4.9120   14.8840    1.4740 N   0  0  0  0  0  0  0  0  0  0  0  0
   -6.0960   14.7000    0.8250 C   0  0  0  0  0  0  0  0  0  0  0  0
   -6.1350   14.8450   -0.4040 O   0  0  0  0  0  0  0  0  0  0  0  0
   -7.3300   14.3340    1.6220 C   0  0  0  0  0  0  0  0  0  0  0  0
   -8.6100   14.6670    0.8720 C   0  0  0  0  0  0  0  0  0  0  0  0
  2  1  1  1
  2  3  1  0
  2  4  1  0
  4  5  2  3
  4  6  1  0
  3  7  1  0
  5  8  1  0
  7  9  2  0
  7 10  1  0
  9 11  1  0
  8 12  1  0
  9 13  1  0
 10 14  2  0
 12 15  1  0
 13 16  2  0
 14 16  1  0
 15 17  1  0
 17 18  1  0
 17 19  2  0
 18 20  2  0
 19 21  1  0
 20 21  1  0
 20 22  1  0
 22 23  1  0
 23 24  2  0
 23 25  1  0
 25 26  1  0
M  END
>  <comRMSD>  (249) 
0.321963

>  <∆∆G>  (249) 
-8.302958

>  <N_constrained_atoms>  (249) 
24.0

>  <LE>  (249) 
-0.319345

>  <ref_pdb>  (249) 
x0104_0

>  <ref_mols>  (249) 
x0465_0_A_α,x0626_0_A_α

>  <%Rank>  (249) 
4.255319

>  <generation_date>  (249) 
nan

>  <method>  (249) 
nan

>  <submitter_email>  (249) 
nan

>  <original SMILES>  (249) 
CCC(=O)Nc1nc(CCCN=C(O)[C@@H](C)Oc2ccccc2F)cs1

>  <ref_url>  (249) 
nan

>  <submitter_name>  (249) 
nan

>  <submitter_institution>  (249) 
nan

$$$$
x0969_0_A_α-x0471_0_A_α
     RDKit          3D

 17 18  0  0  0  0  0  0  0  0999 V2000
   -6.5080   15.0170    2.8150 N   0  0  0  0  0  0  0  0  0  0  0  0
   -6.3280   14.6630    1.4440 C   0  0  1  0  0  0  0  0  0  0  0  0
   -7.5810   14.8390    0.6680 N   0  0  0  0  0  0  0  0  0  0  0  0
   -5.2420   15.2480    0.6850 N   0  0  0  0  0  0  0  0  0  0  0  0
   -8.7170   14.0220    1.1320 C   0  0  0  0  0  0  0  0  0  0  0  0
   -7.0250   14.5100   -0.7690 N   0  0  0  0  0  0  0  0  0  0  0  0
   -5.7710   15.3260   -0.6790 C   0  0  2  0  0  0  0  0  0  0  0  0
   -3.9020   15.1370    0.9870 C   0  0  0  0  0  0  0  0  0  0  0  0
   -8.5800   13.8780    2.5690 N   0  0  0  0  0  0  0  0  0  0  0  0
   -4.6890   15.0620   -1.6940 C   0  0  0  0  0  0  0  0  0  0  0  0
   -2.9760   14.9760    0.0400 C   0  0  0  0  0  0  0  0  0  0  0  0
   -8.9600   14.8450    3.4890 C   0  0  0  0  0  0  0  0  0  0  0  0
   -3.3900   14.9070   -1.3510 C   0  0  0  0  0  0  0  0  0  0  0  0
   -9.4220   15.9440    3.1730 O   0  0  0  0  0  0  0  0  0  0  0  0
   -8.7460   14.4120    4.9460 C   0  0  0  0  0  0  0  0  0  0  0  0
   -9.9870   13.7100    5.5000 C   0  0  0  0  0  0  0  0  0  0  0  0
   -8.3650   15.6000    5.8350 C   0  0  0  0  0  0  0  0  0  0  0  0
  2  1  1  1
  2  3  1  0
  2  4  1  0
  3  5  1  0
  3  6  1  0
  4  7  1  0
  6  7  1  0
  4  8  1  0
  5  9  1  0
  7 10  1  6
  8 11  2  0
  9 12  1  0
 10 13  2  0
 11 13  1  0
 12 14  2  0
 12 15  1  0
 15 16  1  0
 15 17  1  0
M  END
>  <comRMSD>  (250) 
0.334185

>  <∆∆G>  (250) 
-3.142809

>  <N_constrained_atoms>  (250) 
17.0

>  <LE>  (250) 
-0.184871

>  <ref_pdb>  (250) 
x0104_0

>  <ref_mols>  (250) 
x0969_0_A_α,x0471_0_A_α

>  <%Rank>  (250) 
4.272478

>  <generation_date>  (250) 
nan

>  <method>  (250) 
nan

>  <submitter_email>  (250) 
nan

>  <original SMILES>  (250) 
CC(C)C(=O)NCN1NC2C=CC=CN2C1N

>  <ref_url>  (250) 
nan

>  <submitter_name>  (250) 
nan

>  <submitter_institution>  (250) 
nan

$$$$
x0689_0_A_α-x0290_0_A_α
     RDKit          3D

 13 13  0  0  0  0  0  0  0  0999 V2000
   -3.8570   14.7520    1.4370 N   0  0  0  0  0  0  0  0  0  0  0  0
   -5.0270   14.6520    0.7080 C   0  0  0  0  0  0  0  0  0  0  0  0
   -5.1790   14.8230   -0.4950 O   0  0  0  0  0  0  0  0  0  0  0  0
   -2.5790   14.6690    0.8950 C   0  0  0  0  0  0  0  0  0  0  0  0
   -6.2350   14.2530    1.5860 C   0  0  0  0  0  0  0  0  0  0  0  0
   -2.3880   14.7070   -0.4250 N   0  0  0  0  0  0  0  0  0  0  0  0
   -1.5820   14.5460    1.7880 N   0  0  0  0  0  0  0  0  0  0  0  0
   -7.4370   13.9200    0.7890 N   0  0  0  0  0  0  0  0  0  0  0  0
   -1.1270   14.6200   -0.8920 C   0  0  0  0  0  0  0  0  0  0  0  0
   -0.3360   14.4620    1.2920 C   0  0  0  0  0  0  0  0  0  0  0  0
   -8.4670   14.9520    0.8530 C   0  0  0  0  0  0  0  0  0  0  0  0
   -0.9600   14.6640   -2.3790 C   0  0  0  0  0  0  0  0  0  0  0  0
   -0.0410   14.4980   -0.0500 C   0  0  0  0  0  0  0  0  0  0  0  0
  1  2  1  0
  2  3  2  0
  1  4  1  0
  2  5  1  0
  4  6  2  0
  4  7  1  0
  5  8  1  0
  6  9  1  0
  7 10  2  0
  8 11  1  0
  9 12  1  0
  9 13  2  0
 10 13  1  0
M  END
>  <comRMSD>  (251) 
0.382882

>  <∆∆G>  (251) 
-6.221487

>  <N_constrained_atoms>  (251) 
13.0

>  <LE>  (251) 
-0.478576

>  <ref_pdb>  (251) 
x0104_0

>  <ref_mols>  (251) 
x0689_0_A_α,x0290_0_A_α

>  <%Rank>  (251) 
4.289636

>  <generation_date>  (251) 
nan

>  <method>  (251) 
nan

>  <submitter_email>  (251) 
nan

>  <original SMILES>  (251) 
CNCC(=O)Nc1nccc(C)n1

>  <ref_url>  (251) 
nan

>  <submitter_name>  (251) 
nan

>  <submitter_institution>  (251) 
nan

$$$$
x0104_0_A_β-x0128_0_A_α
     RDKit          3D

 18 19  0  0  0  0  0  0  0  0999 V2000
   -7.0800   14.9090    2.3260 N   0  0  0  0  0  0  0  0  0  0  0  0
   -7.9780   15.1180    3.2480 C   0  0  0  0  0  0  0  0  0  0  0  0
   -9.2400   15.1850    3.0450 O   0  0  0  0  0  0  0  0  0  0  0  0
   -6.2730   14.7750    1.2340 C   0  0  0  0  0  0  0  0  0  0  0  0
   -7.6500   15.3560    4.6390 N   0  0  0  0  0  0  0  0  0  0  0  0
   -4.9140   14.6910    1.1150 C   0  0  0  0  0  0  0  0  0  0  0  0
   -7.0150   14.7390    0.0220 C   0  0  0  0  0  0  0  0  0  0  0  0
   -4.2870   14.5800   -0.1010 N   0  0  0  0  0  0  0  0  0  0  0  0
   -6.3700   14.6310   -1.1580 C   0  0  0  0  0  0  0  0  0  0  0  0
   -8.4750   16.1240    5.4650 C   0  0  0  0  0  0  0  0  0  0  0  0
   -5.0230   14.5530   -1.2320 C   0  0  0  0  0  0  0  0  0  0  0  0
   -9.0980   17.2350    4.9590 C   0  0  0  0  0  0  0  0  0  0  0  0
   -8.6650   15.7720    6.7700 C   0  0  0  0  0  0  0  0  0  0  0  0
   -4.4130   14.4400   -2.4850 O   0  0  0  0  0  0  0  0  0  0  0  0
   -9.9090   18.0030    5.7340 N   0  0  0  0  0  0  0  0  0  0  0  0
   -9.5020   16.5780    7.5500 C   0  0  0  0  0  0  0  0  0  0  0  0
   -3.1680   15.1250   -2.6530 C   0  0  0  0  0  0  0  0  0  0  0  0
  -10.1140   17.6880    7.0150 C   0  0  0  0  0  0  0  0  0  0  0  0
  1  2  1  0
  2  3  2  0
  1  4  1  0
  2  5  1  0
  4  6  2  0
  4  7  1  0
  6  8  1  0
  7  9  2  0
  5 10  1  0
  8 11  2  0
  9 11  1  0
 10 12  2  0
 10 13  1  0
 11 14  1  0
 12 15  1  0
 13 16  2  0
 14 17  1  0
 15 18  2  0
 16 18  1  0
M  END
>  <comRMSD>  (252) 
0.423925

>  <∆∆G>  (252) 
-5.737202

>  <N_constrained_atoms>  (252) 
18.0

>  <LE>  (252) 
-0.318733

>  <ref_pdb>  (252) 
x0104_0

>  <ref_mols>  (252) 
x0104_0_A_β,x0128_0_A_α

>  <%Rank>  (252) 
4.306795

>  <generation_date>  (252) 
nan

>  <method>  (252) 
nan

>  <submitter_email>  (252) 
nan

>  <original SMILES>  (252) 
COc1ccc(NC(=O)Nc2cccnc2)cn1

>  <ref_url>  (252) 
nan

>  <submitter_name>  (252) 
nan

>  <submitter_institution>  (252) 
nan

$$$$
x0844_0_A_α-x0128_0_A_α
     RDKit          3D

 18 19  0  0  0  0  0  0  0  0999 V2000
   -7.7760   14.8130   -0.1700 O   0  0  0  0  0  0  0  0  0  0  0  0
   -6.5590   14.8260   -0.0070 C   0  0  0  0  0  0  0  0  0  0  0  0
   -5.9450   14.8640    1.2450 N   0  0  0  0  0  0  0  0  0  0  0  0
   -5.6420   14.8020   -1.1780 C   0  0  0  0  0  0  0  0  0  0  0  0
   -6.7220   14.4020    2.3540 N   0  0  0  0  0  0  0  0  0  0  0  0
   -4.5860   15.0840    1.3980 C   0  0  0  0  0  0  0  0  0  0  0  0
   -4.3240   14.9410   -0.9980 C   0  0  0  0  0  0  0  0  0  0  0  0
   -3.1520   14.8820   -2.4490 Br  0  0  0  0  0  0  0  0  0  0  0  0
   -7.7790   15.1670    2.8930 C   0  0  0  0  0  0  0  0  0  0  0  0
   -3.7730   15.1280    0.3310 C   0  0  0  0  0  0  0  0  0  0  0  0
   -8.7110   15.6140    2.2330 O   0  0  0  0  0  0  0  0  0  0  0  0
   -7.5910   15.3150    4.2590 N   0  0  0  0  0  0  0  0  0  0  0  0
   -8.3890   16.0240    5.2060 C   0  0  0  0  0  0  0  0  0  0  0  0
   -9.0850   17.1670    4.8010 C   0  0  0  0  0  0  0  0  0  0  0  0
   -8.5390   15.6610    6.5440 C   0  0  0  0  0  0  0  0  0  0  0  0
   -9.8760   17.9270    5.5970 N   0  0  0  0  0  0  0  0  0  0  0  0
   -9.3470   16.4240    7.3930 C   0  0  0  0  0  0  0  0  0  0  0  0
   -9.9890   17.5390    6.8780 C   0  0  0  0  0  0  0  0  0  0  0  0
  1  2  2  0
  2  3  1  0
  2  4  1  0
  3  5  1  0
  3  6  1  0
  4  7  2  0
  7  8  1  0
  5  9  1  0
  6 10  2  0
  7 10  1  0
  9 11  2  0
  9 12  1  0
 12 13  1  0
 13 14  2  0
 13 15  1  0
 14 16  1  0
 15 17  2  0
 16 18  2  0
 17 18  1  0
M  END
>  <comRMSD>  (253) 
0.448986

>  <∆∆G>  (253) 
-6.63632

>  <N_constrained_atoms>  (253) 
18.0

>  <LE>  (253) 
-0.368684

>  <ref_pdb>  (253) 
x0104_0

>  <ref_mols>  (253) 
x0844_0_A_α,x0128_0_A_α

>  <%Rank>  (253) 
4.323953

>  <generation_date>  (253) 
nan

>  <method>  (253) 
nan

>  <submitter_email>  (253) 
nan

>  <original SMILES>  (253) 
O=C(Nc1cccnc1)Nn1ccc(Br)cc1=O

>  <ref_url>  (253) 
nan

>  <submitter_name>  (253) 
nan

>  <submitter_institution>  (253) 
nan

$$$$
x0722_0_A_α-x0950_1_A_α
     RDKit          3D

 20 20  0  0  0  0  0  0  0  0999 V2000
   -4.4660   15.7790    2.2720 C   0  0  0  0  0  0  0  0  0  0  0  0
   -3.4710   15.2870    1.3470 C   0  0  0  0  0  0  0  0  0  0  0  0
   -2.3150   14.9250    1.8510 N   0  0  0  0  0  0  0  0  0  0  0  0
   -3.5350   15.1390   -0.0510 C   0  0  0  0  0  0  0  0  0  0  0  0
   -4.6920   15.4520   -0.9520 C   0  0  0  0  0  0  0  0  0  0  0  0
   -2.2750   14.6520   -0.3760 C   0  0  0  0  0  0  0  0  0  0  0  0
   -1.5870   14.5500    0.8170 N   0  0  0  0  0  0  0  0  0  0  0  0
   -0.2470   14.1210    1.1090 C   0  0  0  0  0  0  0  0  0  0  0  0
   -1.7050   14.2970   -1.7020 C   0  0  0  0  0  0  0  0  0  0  0  0
   -5.9500   14.6720   -0.6130 C   0  0  0  0  0  0  0  0  0  0  0  0
   -7.0860   15.1280   -0.7360 O   0  0  0  0  0  0  0  0  0  0  0  0
   -5.7700   13.4000   -0.1570 N   0  0  0  0  0  0  0  0  0  0  0  0
   -0.6030   13.2460   -1.6340 C   0  0  0  0  0  0  0  0  0  0  0  0
    0.8210   13.8150   -1.6460 C   0  0  0  0  0  0  0  0  0  0  0  0
    1.6700   12.8410   -2.2560 O   0  0  0  0  0  0  0  0  0  0  0  0
    1.0710   12.0310   -3.1600 C   0  0  0  0  0  0  0  0  0  0  0  0
    1.3440   12.4970   -4.6030 C   0  0  2  0  0  0  0  0  0  0  0  0
    0.3920   11.0440   -2.8750 O   0  0  0  0  0  0  0  0  0  0  0  0
    1.0310   13.9770   -4.7570 C   0  0  0  0  0  0  0  0  0  0  0  0
    0.6450   11.7830   -5.6130 O   0  0  0  0  0  0  0  0  0  0  0  0
  1  2  1  0
  2  3  2  0
  2  4  1  0
  4  5  1  0
  4  6  2  0
  3  7  1  0
  6  7  1  0
  7  8  1  0
  6  9  1  0
  5 10  1  0
 10 11  2  0
 10 12  1  0
  9 13  1  0
 13 14  1  0
 14 15  1  0
 15 16  1  0
 16 17  1  0
 16 18  2  0
 17 19  1  1
 17 20  1  0
M  END
>  <comRMSD>  (254) 
0.244445

>  <∆∆G>  (254) 
-10.2798

>  <N_constrained_atoms>  (254) 
18.0

>  <LE>  (254) 
-0.51399

>  <ref_pdb>  (254) 
x0104_0

>  <ref_mols>  (254) 
x0722_0_A_α,x0950_1_A_α

>  <%Rank>  (254) 
4.341112

>  <generation_date>  (254) 
nan

>  <method>  (254) 
nan

>  <submitter_email>  (254) 
nan

>  <original SMILES>  (254) 
Cc1nn(C)c(CCCOC(=O)[C@H](C)O)c1CC(N)=O

>  <ref_url>  (254) 
nan

>  <submitter_name>  (254) 
nan

>  <submitter_institution>  (254) 
nan

$$$$
x0722_0_A_α-x0371_0_A_α
     RDKit          3D

 22 23  0  0  0  0  0  0  0  0999 V2000
   -4.4340   15.7690    2.2470 C   0  0  0  0  0  0  0  0  0  0  0  0
   -3.4510   15.2730    1.3030 C   0  0  0  0  0  0  0  0  0  0  0  0
   -2.2820   14.9110    1.7900 N   0  0  0  0  0  0  0  0  0  0  0  0
   -3.5360   15.1180   -0.0990 C   0  0  0  0  0  0  0  0  0  0  0  0
   -4.7110   15.4340   -0.9900 C   0  0  0  0  0  0  0  0  0  0  0  0
   -2.2800   14.6220   -0.4370 C   0  0  0  0  0  0  0  0  0  0  0  0
   -1.5830   14.5300    0.7460 N   0  0  0  0  0  0  0  0  0  0  0  0
   -0.2320   14.0920    0.9740 C   0  0  0  0  0  0  0  0  0  0  0  0
   -1.6830   14.2420   -1.7370 C   0  0  0  0  0  0  0  0  0  0  0  0
   -6.0130   14.7370   -0.6100 C   0  0  0  0  0  0  0  0  0  0  0  0
   -7.1070   15.2520   -0.8230 O   0  0  0  0  0  0  0  0  0  0  0  0
   -5.8810   13.4920   -0.0290 N   0  0  0  0  0  0  0  0  0  0  0  0
   -6.6130   13.1310    1.1810 C   0  0  0  0  0  0  0  0  0  0  0  0
   -7.7310   14.1270    1.5640 C   0  0  0  0  0  0  0  0  0  0  0  0
   -7.7210   14.4820    2.9740 N   0  0  0  0  0  0  0  0  0  0  0  0
   -8.5870   15.4070    3.5310 C   0  0  0  0  0  0  0  0  0  0  0  0
   -9.3340   16.1180    2.8560 O   0  0  0  0  0  0  0  0  0  0  0  0
   -8.5390   15.4630    4.9730 C   0  0  0  0  0  0  0  0  0  0  0  0
   -8.0110   14.4030    5.6590 O   0  0  0  0  0  0  0  0  0  0  0  0
   -8.9410   16.4280    5.8740 C   0  0  0  0  0  0  0  0  0  0  0  0
   -8.0750   14.6920    6.9780 C   0  0  0  0  0  0  0  0  0  0  0  0
   -8.6430   15.9290    7.1660 C   0  0  0  0  0  0  0  0  0  0  0  0
  1  2  1  0
  2  3  2  0
  2  4  1  0
  4  5  1  0
  4  6  2  0
  3  7  1  0
  6  7  1  0
  7  8  1  0
  6  9  1  0
  5 10  1  0
 10 11  2  0
 10 12  1  0
 12 13  1  0
 13 14  1  0
 14 15  1  0
 15 16  1  0
 16 17  2  0
 16 18  1  0
 18 19  1  0
 18 20  2  0
 19 21  1  0
 20 22  1  0
 21 22  2  0
M  END
>  <comRMSD>  (255) 
0.273598

>  <∆∆G>  (255) 
-9.620703

>  <N_constrained_atoms>  (255) 
20.0

>  <LE>  (255) 
-0.437305

>  <ref_pdb>  (255) 
x0104_0

>  <ref_mols>  (255) 
x0722_0_A_α,x0371_0_A_α

>  <%Rank>  (255) 
4.35827

>  <generation_date>  (255) 
nan

>  <method>  (255) 
nan

>  <submitter_email>  (255) 
nan

>  <original SMILES>  (255) 
Cc1nn(C)c(C)c1CC(=O)NCCNC(=O)c1ccco1

>  <ref_url>  (255) 
nan

>  <submitter_name>  (255) 
nan

>  <submitter_institution>  (255) 
nan

$$$$
x0685_0_A_α-x0844_0_A_α
     RDKit          3D

 12 12  0  0  0  0  0  0  0  0999 V2000
   -5.9660   15.0720    2.7320 N   0  0  0  0  0  0  0  0  0  0  0  0
   -7.2970   14.5300    3.0010 C   0  0  0  0  0  0  0  0  0  0  0  0
   -7.3800   13.0370    2.7480 C   0  0  0  0  0  0  0  0  0  0  0  0
   -5.3460   15.0310    1.4670 C   0  0  0  0  0  0  0  0  0  0  0  0
   -3.9580   15.1160    1.3460 C   0  0  0  0  0  0  0  0  0  0  0  0
   -6.1450   14.9210    0.3000 N   0  0  0  0  0  0  0  0  0  0  0  0
   -7.4250   14.8340    0.3760 O   0  0  0  0  0  0  0  0  0  0  0  0
   -3.3640   15.1050    0.0910 C   0  0  0  0  0  0  0  0  0  0  0  0
   -5.5370   14.9160   -0.9330 C   0  0  0  0  0  0  0  0  0  0  0  0
   -4.1560   15.0100   -1.0520 C   0  0  0  0  0  0  0  0  0  0  0  0
   -3.5610   15.0120   -2.3480 C   0  0  0  0  0  0  0  0  0  0  0  0
   -3.0860   15.0340   -3.4060 N   0  0  0  0  0  0  0  0  0  0  0  0
  1  2  1  0
  2  3  1  0
  1  4  1  0
  4  5  2  0
  4  6  1  0
  6  7  1  0
  5  8  1  0
  6  9  2  0
  8 10  2  0
  9 10  1  0
 10 11  1  0
 11 12  3  0
M  CHG  2   6   1   7  -1
M  END
>  <comRMSD>  (256) 
0.353958

>  <∆∆G>  (256) 
-5.65928

>  <N_constrained_atoms>  (256) 
12.0

>  <LE>  (256) 
-0.471607

>  <ref_pdb>  (256) 
x0104_0

>  <ref_mols>  (256) 
x0685_0_A_α,x0844_0_A_α

>  <%Rank>  (256) 
4.375429

>  <generation_date>  (256) 
nan

>  <method>  (256) 
nan

>  <submitter_email>  (256) 
nan

>  <original SMILES>  (256) 
CCNc1ccc(C#N)c[n+]1[O-]

>  <ref_url>  (256) 
nan

>  <submitter_name>  (256) 
nan

>  <submitter_institution>  (256) 
nan

$$$$
x1015_0_A_α-x0895_1_A_α
     RDKit          3D

 24 26  0  0  0  0  0  0  0  0999 V2000
   -1.3370   14.3740   -4.2460 C   0  0  0  0  0  0  0  0  0  0  0  0
   -0.0250   13.6910   -3.8540 C   0  0  2  0  0  0  0  0  0  0  0  0
   -0.0820   12.2250   -3.8920 N   0  0  0  0  0  0  0  0  0  0  0  0
    0.2090   13.8790   -2.3600 C   0  0  0  0  0  0  0  0  0  0  0  0
   -0.0490   14.9560   -1.6990 N   0  0  0  0  0  0  0  0  0  0  0  0
    0.3070   11.6920   -2.6490 C   0  0  0  0  0  0  0  0  0  0  0  0
    0.7210   12.7340   -1.8770 N   0  0  0  0  0  0  0  0  0  0  0  0
   -0.4810   11.4560   -5.0160 C   0  0  0  0  0  0  0  0  0  0  0  0
    0.3000   10.5190   -2.2670 O   0  0  0  0  0  0  0  0  0  0  0  0
    0.1990   15.0360   -0.2360 C   0  0  0  0  0  0  0  0  0  0  0  0
    0.0800   11.6660   -6.2860 C   0  0  0  0  0  0  0  0  0  0  0  0
   -1.4500   10.4480   -4.8920 C   0  0  0  0  0  0  0  0  0  0  0  0
   -0.4670   13.9170    0.5800 C   0  0  0  0  0  0  0  0  0  0  0  0
   -0.3130   10.8990   -7.3890 C   0  0  0  0  0  0  0  0  0  0  0  0
   -1.8450    9.6790   -5.9890 C   0  0  0  0  0  0  0  0  0  0  0  0
   -1.5210   14.4080    1.5000 N   0  0  0  0  0  0  0  0  0  0  0  0
   -1.2770    9.9050   -7.2340 C   0  0  0  0  0  0  0  0  0  0  0  0
   -1.7660    8.9550   -8.5800 Cl  0  0  0  0  0  0  0  0  0  0  0  0
   -2.6780   14.6690    0.9880 C   0  0  0  0  0  0  0  0  0  0  0  0
   -2.9950   14.5260   -0.4970 C   0  0  0  0  0  0  0  0  0  0  0  0
   -3.7960   15.0860    1.6410 N   0  0  0  0  0  0  0  0  0  0  0  0
   -4.3590   14.9650   -0.4880 N   0  0  0  0  0  0  0  0  0  0  0  0
   -4.8510   14.9640    0.7900 C   0  0  0  0  0  0  0  0  0  0  0  0
   -6.0280   14.8640    1.0830 O   0  0  0  0  0  0  0  0  0  0  0  0
  2  1  1  1
  2  3  1  0
  2  4  1  0
  4  5  2  3
  3  6  1  0
  4  7  1  0
  6  7  1  0
  3  8  1  0
  6  9  2  0
  5 10  1  0
  8 11  2  0
  8 12  1  0
 10 13  1  0
 11 14  1  0
 12 15  2  0
 13 16  1  0
 14 17  2  0
 15 17  1  0
 17 18  1  0
 16 19  2  3
 19 20  1  0
 19 21  1  0
 20 22  1  0
 21 23  1  0
 22 23  1  0
 23 24  2  0
M  END
>  <comRMSD>  (257) 
0.284216

>  <∆∆G>  (257) 
-8.139748

>  <N_constrained_atoms>  (257) 
22.0

>  <LE>  (257) 
-0.339156

>  <ref_pdb>  (257) 
x0104_0

>  <ref_mols>  (257) 
x1015_0_A_α,x0895_1_A_α

>  <%Rank>  (257) 
4.392588

>  <generation_date>  (257) 
nan

>  <method>  (257) 
nan

>  <submitter_email>  (257) 
nan

>  <original SMILES>  (257) 
CC1C(=NCCN=C2CNC(=O)N2)NC(=O)N1c1ccc(Cl)cc1

>  <ref_url>  (257) 
nan

>  <submitter_name>  (257) 
nan

>  <submitter_institution>  (257) 
nan

$$$$
5cms_O_14_O_γ-x0253_0_A_α
     RDKit          3D

 21 22  0  0  0  0  0  0  0  0999 V2000
   -1.7920   12.9450   -4.2650 O   0  0  0  0  0  0  0  0  0  0  0  0
   -1.1220   14.2060   -4.3730 C   0  0  1  0  0  0  0  0  0  0  0  0
   -0.7820   14.7110   -2.9780 C   0  0  0  0  0  0  0  0  0  0  0  0
    0.2750   14.1170   -4.9430 C   0  0  2  0  0  0  0  0  0  0  0  0
    0.8830   12.8460   -4.5640 N   0  0  0  0  0  0  0  0  0  0  0  0
    0.2930   15.6610   -3.1360 O   0  0  0  0  0  0  0  0  0  0  0  0
    0.8980   15.4280   -4.4240 C   0  0  2  0  0  0  0  0  0  0  0  0
    0.6160   16.6450   -5.2960 C   0  0  0  0  0  0  0  0  0  0  0  0
    0.4090   11.8410   -5.4450 N   0  0  0  0  0  0  0  0  0  0  0  0
    0.9430   12.4240   -3.2440 C   0  0  0  0  0  0  0  0  0  0  0  0
    1.1450   11.6150   -6.5790 C   0  0  0  0  0  0  0  0  0  0  0  0
    1.4740   12.9750   -2.2950 O   0  0  0  0  0  0  0  0  0  0  0  0
    0.3160   11.2370   -3.0510 O   0  0  0  0  0  0  0  0  0  0  0  0
    2.2470   12.0910   -6.7110 O   0  0  0  0  0  0  0  0  0  0  0  0
    0.5010   10.7120   -7.5910 C   0  0  0  0  0  0  0  0  0  0  0  0
   -0.4790    9.7990   -7.1900 C   0  0  0  0  0  0  0  0  0  0  0  0
    0.8680   10.7650   -8.9450 C   0  0  0  0  0  0  0  0  0  0  0  0
   -1.0900    8.9490   -8.1240 C   0  0  0  0  0  0  0  0  0  0  0  0
    0.2620    9.9200   -9.8750 C   0  0  0  0  0  0  0  0  0  0  0  0
   -2.1400    7.9750   -7.6820 C   0  0  0  0  0  0  0  0  0  0  0  0
   -0.7110    9.0200   -9.4660 C   0  0  0  0  0  0  0  0  0  0  0  0
  2  1  1  1
  2  3  1  0
  2  4  1  0
  4  5  1  1
  3  6  1  0
  4  7  1  0
  6  7  1  0
  7  8  1  6
  5  9  1  0
  5 10  1  0
  9 11  1  0
 10 12  2  0
 10 13  1  0
 11 14  2  0
 11 15  1  0
 15 16  2  0
 15 17  1  0
 16 18  1  0
 17 19  2  0
 18 20  1  0
 18 21  2  0
 19 21  1  0
M  END
>  <comRMSD>  (258) 
0.412744

>  <∆∆G>  (258) 
-3.705829

>  <N_constrained_atoms>  (258) 
21.0

>  <LE>  (258) 
-0.176468

>  <ref_pdb>  (258) 
x0104_0

>  <ref_mols>  (258) 
x0253_0_A_α

>  <%Rank>  (258) 
4.409746

>  <generation_date>  (258) 
nan

>  <method>  (258) 
nan

>  <submitter_email>  (258) 
nan

>  <original SMILES>  (258) 
Cc1cccc(C(=O)NN(C(=O)O)C2C(O)COC2C)c1

>  <ref_url>  (258) 
nan

>  <submitter_name>  (258) 
nan

>  <submitter_institution>  (258) 
nan

$$$$
x0128_0_A_α-x0910_1_A_α
     RDKit          3D

 17 18  0  0  0  0  0  0  0  0999 V2000
   -6.6850   14.5240    2.4810 N   0  0  0  0  0  0  0  0  0  0  0  0
   -7.7650   15.1480    3.0260 C   0  0  0  0  0  0  0  0  0  0  0  0
   -8.7600   15.5540    2.4270 O   0  0  0  0  0  0  0  0  0  0  0  0
   -6.0290   14.7830    1.2670 C   0  0  0  0  0  0  0  0  0  0  0  0
   -7.6890   15.3170    4.3770 N   0  0  0  0  0  0  0  0  0  0  0  0
   -6.8440   14.6860    0.1370 C   0  0  0  0  0  0  0  0  0  0  0  0
   -4.6780   15.1210    1.1330 C   0  0  0  0  0  0  0  0  0  0  0  0
   -8.2050   14.3370    0.3210 N   0  0  0  0  0  0  0  0  0  0  0  0
   -6.3140   14.9310   -1.1340 C   0  0  0  0  0  0  0  0  0  0  0  0
   -4.1520   15.3620   -0.1390 C   0  0  0  0  0  0  0  0  0  0  0  0
   -8.4620   16.0480    5.3050 C   0  0  0  0  0  0  0  0  0  0  0  0
   -4.9670   15.2700   -1.2670 C   0  0  0  0  0  0  0  0  0  0  0  0
   -9.1290   17.1970    4.8730 C   0  0  0  0  0  0  0  0  0  0  0  0
   -8.6200   15.7100    6.6500 C   0  0  0  0  0  0  0  0  0  0  0  0
   -9.9030   17.9870    5.6520 N   0  0  0  0  0  0  0  0  0  0  0  0
   -9.4130   16.5070    7.4800 C   0  0  0  0  0  0  0  0  0  0  0  0
  -10.0290   17.6260    6.9400 C   0  0  0  0  0  0  0  0  0  0  0  0
  1  2  1  0
  2  3  2  0
  1  4  1  0
  2  5  1  0
  4  6  2  0
  4  7  1  0
  6  8  1  0
  6  9  1  0
  7 10  2  0
  5 11  1  0
  9 12  2  0
 10 12  1  0
 11 13  2  0
 11 14  1  0
 13 15  1  0
 14 16  2  0
 15 17  2  0
 16 17  1  0
M  END
>  <comRMSD>  (259) 
0.432238

>  <∆∆G>  (259) 
-6.335022

>  <N_constrained_atoms>  (259) 
17.0

>  <LE>  (259) 
-0.372648

>  <ref_pdb>  (259) 
x0104_0

>  <ref_mols>  (259) 
x0128_0_A_α,x0910_1_A_α

>  <%Rank>  (259) 
4.426905

>  <generation_date>  (259) 
nan

>  <method>  (259) 
nan

>  <submitter_email>  (259) 
nan

>  <original SMILES>  (259) 
Nc1ccccc1NC(=O)Nc1cccnc1

>  <ref_url>  (259) 
nan

>  <submitter_name>  (259) 
nan

>  <submitter_institution>  (259) 
nan

$$$$
x0727_0_A_α-x0724_0_A_α
     RDKit          3D

 30 32  0  0  0  0  0  0  0  0999 V2000
    0.1300   11.4260   -5.5770 N   0  0  0  0  0  0  0  0  0  0  0  0
    0.9020   12.3320   -4.7180 C   0  0  1  0  0  0  0  0  0  0  0  0
    0.4400   13.7660   -4.9170 C   0  0  0  0  0  0  0  0  0  0  0  0
    0.7080   11.1050   -6.7880 C   0  0  0  0  0  0  0  0  0  0  0  0
    1.6400   11.7430   -7.2000 O   0  0  0  0  0  0  0  0  0  0  0  0
    0.7700   11.8920   -3.2480 C   0  0  0  0  0  0  0  0  0  0  0  0
    0.1380    9.8950   -7.5270 C   0  0  0  0  0  0  0  0  0  0  0  0
   -0.0240   11.0460   -2.8430 O   0  0  0  0  0  0  0  0  0  0  0  0
    1.6740   12.5430   -2.4530 O   0  0  0  0  0  0  0  0  0  0  0  0
   -1.1330   10.2150   -8.3190 C   0  0  0  0  0  0  0  0  0  0  0  0
   -0.2210    8.7510   -6.5660 C   0  0  0  0  0  0  0  0  0  0  0  0
    1.2500   13.7860   -1.8650 C   0  0  0  0  0  0  0  0  0  0  0  0
   -2.2690    9.5030   -7.5950 C   0  0  0  0  0  0  0  0  0  0  0  0
   -1.6220    8.3010   -6.9300 C   0  0  0  0  0  0  0  0  0  0  0  0
   -0.1450   13.6030   -1.2770 C   0  0  0  0  0  0  0  0  0  0  0  0
   -1.2010   14.4290   -2.0190 C   0  0  0  0  0  0  0  0  0  0  0  0
   -2.5210   14.5130   -1.2910 C   0  0  0  0  0  0  0  0  0  0  0  0
   -2.5500   14.6600    0.1010 C   0  0  0  0  0  0  0  0  0  0  0  0
   -3.7300   14.4390   -1.9940 C   0  0  0  0  0  0  0  0  0  0  0  0
   -3.7640   14.7220    0.7860 C   0  0  0  0  0  0  0  0  0  0  0  0
   -4.9500   14.5010   -1.3140 C   0  0  0  0  0  0  0  0  0  0  0  0
   -4.9710   14.6380    0.0820 C   0  0  0  0  0  0  0  0  0  0  0  0
   -6.2090   14.6910    0.7800 N   0  0  0  0  0  0  0  0  0  0  0  0
   -7.4100   14.5680    0.1560 N   0  0  0  0  0  0  0  0  0  0  0  0
   -6.3730   14.8690    2.1350 C   0  0  0  0  0  0  0  0  0  0  0  0
   -7.7230   14.8770    2.4070 C   0  0  0  0  0  0  0  0  0  0  0  0
   -8.3120   14.6830    1.1380 C   0  0  0  0  0  0  0  0  0  0  0  0
   -8.3800   15.0600    3.7310 C   0  0  0  0  0  0  0  0  0  0  0  0
   -8.7610   13.7660    4.2750 N   0  0  0  0  0  0  0  0  0  0  0  0
   -8.6830   13.7810    5.7310 C   0  0  0  0  0  0  0  0  0  0  0  0
  1  2  1  0
  2  3  1  1
  1  4  1  0
  4  5  2  0
  2  6  1  0
  4  7  1  0
  6  8  2  0
  6  9  1  0
  7 10  1  0
  7 11  1  0
  9 12  1  0
 10 13  1  0
 11 14  1  0
 13 14  1  0
 12 15  1  0
 15 16  1  0
 16 17  1  0
 17 18  2  0
 17 19  1  0
 18 20  1  0
 19 21  2  0
 20 22  2  0
 21 22  1  0
 22 23  1  0
 23 24  1  0
 23 25  1  0
 25 26  2  0
 24 27  2  0
 26 27  1  0
 26 28  1  0
 28 29  1  0
 29 30  1  0
M  END
>  <comRMSD>  (260) 
0.272727

>  <∆∆G>  (260) 
-7.915631

>  <N_constrained_atoms>  (260) 
27.0

>  <LE>  (260) 
-0.263854

>  <ref_pdb>  (260) 
x0104_0

>  <ref_mols>  (260) 
x0727_0_A_α,x0724_0_A_α

>  <%Rank>  (260) 
4.444063

>  <generation_date>  (260) 
nan

>  <method>  (260) 
nan

>  <submitter_email>  (260) 
nan

>  <original SMILES>  (260) 
CNCc1cnn(-c2ccc(CCCOC(=O)[C@H](C)NC(=O)C3CCCC3)cc2)c1

>  <ref_url>  (260) 
nan

>  <submitter_name>  (260) 
nan

>  <submitter_institution>  (260) 
nan

$$$$
5cms_P_15_P_β-x1015_0_A_α
     RDKit          3D

 26 27  0  0  0  0  0  0  0  0999 V2000
   -1.0810   20.7670   -8.7080 O   0  0  0  0  0  0  0  0  0  0  0  0
   -0.2800   19.7610   -7.7920 P   0  0  0  0  0  0  0  0  0  0  0  0
   -1.3670   19.4630   -6.7050 O   0  0  0  0  0  0  0  0  0  0  0  0
    1.0380   20.2500   -7.3470 O   0  0  0  0  0  0  0  0  0  0  0  0
   -0.2020   18.4670   -8.7150 O   0  0  0  0  0  0  0  0  0  0  0  0
   -1.6930   18.0640   -6.1060 P   0  0  2  0  0  0  0  0  0  0  0  0
   -0.3590   17.1950   -6.1180 O   0  0  0  0  0  0  0  0  0  0  0  0
   -2.8590   17.3940   -6.7330 O   0  0  0  0  0  0  0  0  0  0  0  0
   -1.8730   18.3650   -4.5550 O   0  0  0  0  0  0  0  0  0  0  0  0
    0.1570   16.6990   -4.9000 C   0  0  0  0  0  0  0  0  0  0  0  0
   -0.9630   16.0320   -4.0870 C   0  0  0  0  0  0  0  0  0  0  0  0
   -1.1010   14.5190   -4.2970 C   0  0  0  0  0  0  0  0  0  0  0  0
    0.1410   13.6620   -3.9850 C   0  0  2  0  0  0  0  0  0  0  0  0
   -0.1360   12.2240   -3.9120 N   0  0  0  0  0  0  0  0  0  0  0  0
    0.4950   13.9060   -2.5150 C   0  0  0  0  0  0  0  0  0  0  0  0
    0.5600   14.9910   -1.9480 O   0  0  0  0  0  0  0  0  0  0  0  0
    0.2760   11.6950   -2.6790 C   0  0  0  0  0  0  0  0  0  0  0  0
    0.7370   12.7190   -1.9150 N   0  0  0  0  0  0  0  0  0  0  0  0
   -0.5150   11.4340   -5.0270 C   0  0  0  0  0  0  0  0  0  0  0  0
    0.2550   10.5240   -2.2890 O   0  0  0  0  0  0  0  0  0  0  0  0
    0.0530   11.6420   -6.2910 C   0  0  0  0  0  0  0  0  0  0  0  0
   -1.4700   10.4170   -4.8940 C   0  0  0  0  0  0  0  0  0  0  0  0
   -0.3230   10.8580   -7.3890 C   0  0  0  0  0  0  0  0  0  0  0  0
   -1.8490    9.6290   -5.9870 C   0  0  0  0  0  0  0  0  0  0  0  0
   -1.2730    9.8550   -7.2290 C   0  0  0  0  0  0  0  0  0  0  0  0
   -1.7390    8.8880   -8.5720 Cl  0  0  0  0  0  0  0  0  0  0  0  0
  1  2  1  0
  2  3  1  0
  2  4  2  0
  2  5  1  0
  3  6  1  0
  6  7  1  0
  6  8  2  0
  6  9  1  1
  7 10  1  0
 10 11  1  0
 11 12  1  0
 13 12  1  1
 13 14  1  0
 13 15  1  0
 15 16  2  0
 14 17  1  0
 15 18  1  0
 17 18  1  0
 14 19  1  0
 17 20  2  0
 19 21  2  0
 19 22  1  0
 21 23  1  0
 22 24  2  0
 23 25  2  0
 24 25  1  0
 25 26  1  0
M  END
>  <comRMSD>  (261) 
0.42871

>  <∆∆G>  (261) 
-13.612807

>  <N_constrained_atoms>  (261) 
24.0

>  <LE>  (261) 
-0.523569

>  <ref_pdb>  (261) 
x0104_0

>  <ref_mols>  (261) 
x1015_0_A_α

>  <%Rank>  (261) 
4.461222

>  <generation_date>  (261) 
nan

>  <method>  (261) 
nan

>  <submitter_email>  (261) 
nan

>  <original SMILES>  (261) 
O=C1NC(=O)N(c2ccc(Cl)cc2)C1CCCOP(=O)(O)OP(=O)(O)O

>  <ref_url>  (261) 
nan

>  <submitter_name>  (261) 
nan

>  <submitter_institution>  (261) 
nan

$$$$
x0662_0_A_α-x1015_0_A_α
     RDKit          3D

 26 28  0  0  0  0  0  0  0  0999 V2000
    2.2860    9.3490  -11.4490 C   0  0  0  0  0  0  0  0  0  0  0  0
    2.5110    8.2170  -10.8640 N   0  0  0  0  0  0  0  0  0  0  0  0
    1.7950    7.7260   -9.6920 C   0  0  0  0  0  0  0  0  0  0  0  0
    2.9660    9.8950  -12.6210 C   0  0  0  0  0  0  0  0  0  0  0  0
    3.9140    9.2260  -13.2860 N   0  0  0  0  0  0  0  0  0  0  0  0
    2.7480   11.1760  -13.2170 C   0  0  0  0  0  0  0  0  0  0  0  0
    0.7330    8.7180   -9.2240 C   0  0  0  0  0  0  0  0  0  0  0  0
    4.2900   10.0490  -14.2730 N   0  0  0  0  0  0  0  0  0  0  0  0
    3.6170   11.2370  -14.2780 C   0  0  0  0  0  0  0  0  0  0  0  0
    5.3190    9.6160  -15.1860 C   0  0  0  0  0  0  0  0  0  0  0  0
   -0.6470    8.0890   -8.9750 C   0  0  0  0  0  0  0  0  0  0  0  0
   -1.7210    9.0380   -8.4290 C   0  0  0  0  0  0  0  0  0  0  0  0
   -1.3010    9.8820   -7.2540 C   0  0  0  0  0  0  0  0  0  0  0  0
   -0.3470   10.8960   -7.3920 C   0  0  0  0  0  0  0  0  0  0  0  0
   -1.8590    9.6630   -5.9910 C   0  0  0  0  0  0  0  0  0  0  0  0
    0.0370   11.6700   -6.2930 C   0  0  0  0  0  0  0  0  0  0  0  0
   -1.4730   10.4390   -4.8960 C   0  0  0  0  0  0  0  0  0  0  0  0
   -0.5190   11.4560   -5.0240 C   0  0  0  0  0  0  0  0  0  0  0  0
   -0.1310   12.2400   -3.9090 N   0  0  0  0  0  0  0  0  0  0  0  0
    0.0020   13.6930   -3.9530 C   0  0  1  0  0  0  0  0  0  0  0  0
    0.2730   11.7350   -2.6610 C   0  0  0  0  0  0  0  0  0  0  0  0
   -1.3030   14.4240   -4.2580 C   0  0  0  0  0  0  0  0  0  0  0  0
    0.2960   10.5680   -2.2610 O   0  0  0  0  0  0  0  0  0  0  0  0
    0.6610   12.7900   -1.8950 N   0  0  0  0  0  0  0  0  0  0  0  0
    0.3990   13.9670   -2.5100 C   0  0  0  0  0  0  0  0  0  0  0  0
    0.4780   15.0610   -1.9740 O   0  0  0  0  0  0  0  0  0  0  0  0
  1  2  2  3
  2  3  1  0
  1  4  1  0
  4  5  2  0
  4  6  1  0
  3  7  1  0
  5  8  1  0
  6  9  2  0
  8  9  1  0
  8 10  1  0
  7 11  1  0
 11 12  1  0
 12 13  1  0
 13 14  2  0
 13 15  1  0
 14 16  1  0
 15 17  2  0
 16 18  2  0
 17 18  1  0
 18 19  1  0
 19 20  1  0
 19 21  1  0
 20 22  1  1
 21 23  2  0
 21 24  1  0
 20 25  1  0
 24 25  1  0
 25 26  2  0
M  END
>  <comRMSD>  (262) 
0.175683

>  <∆∆G>  (262) 
-7.374998

>  <N_constrained_atoms>  (262) 
23.0

>  <LE>  (262) 
-0.283654

>  <ref_pdb>  (262) 
x0104_0

>  <ref_mols>  (262) 
x0662_0_A_α,x1015_0_A_α

>  <%Rank>  (262) 
4.47838

>  <generation_date>  (262) 
nan

>  <method>  (262) 
nan

>  <submitter_email>  (262) 
nan

>  <original SMILES>  (262) 
CC1C(=O)NC(=O)N1c1ccc(CCCCN=Cc2ccn(C)n2)cc1

>  <ref_url>  (262) 
nan

>  <submitter_name>  (262) 
nan

>  <submitter_institution>  (262) 
nan

$$$$
x0967_0_A_α-x0628_0_A_α
     RDKit          3D

 24 26  0  0  0  0  0  0  0  0999 V2000
   -1.0670    9.1160   -7.2710 C   0  0  0  0  0  0  0  0  0  0  0  0
   -0.9970   10.2960   -6.3880 C   0  0  0  0  0  0  0  0  0  0  0  0
   -1.9250   10.5440   -5.4100 N   0  0  0  0  0  0  0  0  0  0  0  0
   -0.0260   11.2000   -6.4760 N   0  0  0  0  0  0  0  0  0  0  0  0
   -0.3530   12.0670   -5.4950 N   0  0  0  0  0  0  0  0  0  0  0  0
   -1.5050   11.6690   -4.8470 C   0  0  0  0  0  0  0  0  0  0  0  0
   -2.1660   12.3790   -3.6950 C   0  0  0  0  0  0  0  0  0  0  0  0
    0.4750   13.2260   -5.2460 C   0  0  0  0  0  0  0  0  0  0  0  0
    1.6370   12.9950   -4.2940 C   0  0  0  0  0  0  0  0  0  0  0  0
   -3.0690   13.5930   -3.9950 C   0  0  0  0  0  0  0  0  0  0  0  0
    1.1900   12.3000   -3.0400 C   0  0  0  0  0  0  0  0  0  0  0  0
   -2.8850   14.8230   -3.0660 C   0  0  0  0  0  0  0  0  0  0  0  0
    0.5180   11.2850   -2.9390 O   0  0  0  0  0  0  0  0  0  0  0  0
    1.6100   12.9490   -1.9410 O   0  0  0  0  0  0  0  0  0  0  0  0
   -3.6930   14.8360   -1.7750 C   0  0  0  0  0  0  0  0  0  0  0  0
   -5.0360   14.6740   -1.8740 N   0  0  0  0  0  0  0  0  0  0  0  0
   -3.0590   15.0120   -0.5490 C   0  0  0  0  0  0  0  0  0  0  0  0
   -5.7880   14.6790   -0.7700 C   0  0  0  0  0  0  0  0  0  0  0  0
   -3.8310   15.0260    0.6050 C   0  0  0  0  0  0  0  0  0  0  0  0
   -7.1070   14.5090   -0.9100 N   0  0  0  0  0  0  0  0  0  0  0  0
   -5.2170   14.8560    0.5000 C   0  0  0  0  0  0  0  0  0  0  0  0
   -6.0580   14.8560    1.6190 C   0  0  0  0  0  0  0  0  0  0  0  0
   -7.8930   14.5050    0.1910 C   0  0  0  0  0  0  0  0  0  0  0  0
   -7.4220   14.6730    1.4720 C   0  0  0  0  0  0  0  0  0  0  0  0
  1  2  1  0
  2  3  1  0
  2  4  2  0
  4  5  1  0
  3  6  2  0
  5  6  1  0
  6  7  1  0
  5  8  1  0
  8  9  1  0
  7 10  1  0
  9 11  1  0
 10 12  1  0
 11 13  2  0
 11 14  1  0
 12 15  1  0
 15 16  2  0
 15 17  1  0
 16 18  1  0
 17 19  2  0
 18 20  2  0
 18 21  1  0
 19 21  1  0
 21 22  2  0
 20 23  1  0
 22 24  1  0
 23 24  2  0
M  END
>  <comRMSD>  (263) 
0.243708

>  <∆∆G>  (263) 
-6.125626

>  <N_constrained_atoms>  (263) 
22.0

>  <LE>  (263) 
-0.255234

>  <ref_pdb>  (263) 
x0104_0

>  <ref_mols>  (263) 
x0967_0_A_α,x0628_0_A_α

>  <%Rank>  (263) 
4.495539

>  <generation_date>  (263) 
nan

>  <method>  (263) 
nan

>  <submitter_email>  (263) 
nan

>  <original SMILES>  (263) 
Cc1nc(CCCc2ccc3cccnc3n2)n(CCC(=O)O)n1

>  <ref_url>  (263) 
nan

>  <submitter_name>  (263) 
nan

>  <submitter_institution>  (263) 
nan

$$$$
x0864_0_A_α-x0421_0_A_α
     RDKit          3D

 25 27  0  0  0  0  0  0  0  0999 V2000
    1.6290   11.8330   -6.8680 O   0  0  0  0  0  0  0  0  0  0  0  0
    0.5750   11.3610   -6.4750 C   0  0  0  0  0  0  0  0  0  0  0  0
   -0.2080   11.9070   -5.4800 N   0  0  0  0  0  0  0  0  0  0  0  0
    0.0640   10.0960   -7.0650 C   0  0  0  0  0  0  0  0  0  0  0  0
    0.4280   12.7410   -4.4460 C   0  0  0  0  0  0  0  0  0  0  0  0
   -1.5570   11.6170   -5.4190 C   0  0  0  0  0  0  0  0  0  0  0  0
   -1.2030    9.7260   -6.8460 C   0  0  0  0  0  0  0  0  0  0  0  0
    0.6150   12.0790   -3.0710 C   0  0  0  0  0  0  0  0  0  0  0  0
   -1.9130    8.1460   -7.5430 Br  0  0  0  0  0  0  0  0  0  0  0  0
   -2.0650   10.5620   -6.0620 C   0  0  0  0  0  0  0  0  0  0  0  0
    0.5190   10.7340   -3.0700 O   0  0  0  0  0  0  0  0  0  0  0  0
    0.8350   12.7070   -1.9680 N   0  0  0  0  0  0  0  0  0  0  0  0
    0.9150   14.1610   -1.9280 C   0  0  0  0  0  0  0  0  0  0  0  0
   -0.3410   14.7810   -1.2710 C   0  0  0  0  0  0  0  0  0  0  0  0
   -1.4610   14.9320   -2.2300 N   0  0  0  0  0  0  0  0  0  0  0  0
   -2.7460   15.0010   -2.0030 C   0  0  0  0  0  0  0  0  0  0  0  0
   -3.7270   15.1470   -2.9450 N   0  0  0  0  0  0  0  0  0  0  0  0
   -3.3420   14.9250   -0.6510 C   0  0  0  0  0  0  0  0  0  0  0  0
   -2.7080   14.9210    0.5740 C   0  0  0  0  0  0  0  0  0  0  0  0
   -4.7210   14.8400   -0.4510 N   0  0  0  0  0  0  0  0  0  0  0  0
   -3.7050   14.8270    1.5000 N   0  0  0  0  0  0  0  0  0  0  0  0
   -4.8940   14.7820    0.8450 C   0  0  0  0  0  0  0  0  0  0  0  0
   -6.2690   14.6690    1.5690 C   0  0  0  0  0  0  0  0  0  0  0  0
   -7.5440   14.6680    0.7660 C   0  0  0  0  0  0  0  0  0  0  0  0
   -7.0700   13.4040    1.4260 C   0  0  0  0  0  0  0  0  0  0  0  0
  1  2  2  0
  2  3  1  0
  2  4  1  0
  3  5  1  0
  3  6  1  0
  4  7  2  0
  5  8  1  0
  7  9  1  0
  6 10  2  0
  7 10  1  0
  8 11  1  0
  8 12  2  3
 12 13  1  0
 13 14  1  0
 14 15  1  0
 15 16  2  3
 16 17  1  0
 16 18  1  0
 18 19  2  0
 18 20  1  0
 19 21  1  0
 20 22  2  0
 21 22  1  0
 22 23  1  0
 23 24  1  0
 23 25  1  0
 24 25  1  0
M  END
>  <comRMSD>  (264) 
0.287766

>  <∆∆G>  (264) 
-7.24118

>  <N_constrained_atoms>  (264) 
23.0

>  <LE>  (264) 
-0.289647

>  <ref_pdb>  (264) 
x0104_0

>  <ref_mols>  (264) 
x0864_0_A_α,x0421_0_A_α

>  <%Rank>  (264) 
4.512697

>  <generation_date>  (264) 
nan

>  <method>  (264) 
nan

>  <submitter_email>  (264) 
nan

>  <original SMILES>  (264) 
NC(=NCCN=C(O)Cn1ccc(Br)cc1=O)c1c[nH]c(C2CC2)n1

>  <ref_url>  (264) 
nan

>  <submitter_name>  (264) 
nan

>  <submitter_institution>  (264) 
nan

$$$$
x0465_0_A_α-x0128_0_A_α
     RDKit          3D

 33 35  0  0  0  0  0  0  0  0999 V2000
    2.0310   13.2510   -4.6360 C   0  0  0  0  0  0  0  0  0  0  0  0
    0.6890   12.5350   -4.4600 C   0  0  1  0  0  0  0  0  0  0  0  0
    0.6610   11.5040   -5.4790 O   0  0  0  0  0  0  0  0  0  0  0  0
    0.6220   11.9210   -3.0500 C   0  0  0  0  0  0  0  0  0  0  0  0
    0.7050   12.6070   -1.9610 N   0  0  0  0  0  0  0  0  0  0  0  0
    0.4600   10.5810   -2.9970 O   0  0  0  0  0  0  0  0  0  0  0  0
   -0.5260   10.8290   -5.6480 C   0  0  0  0  0  0  0  0  0  0  0  0
    0.8560   14.0530   -1.8900 C   0  0  0  0  0  0  0  0  0  0  0  0
   -0.6500    9.7830   -6.5740 C   0  0  0  0  0  0  0  0  0  0  0  0
   -1.6280   11.1950   -4.8770 C   0  0  0  0  0  0  0  0  0  0  0  0
    0.3920    9.4150   -7.3270 F   0  0  0  0  0  0  0  0  0  0  0  0
   -0.0280   14.5850   -0.7540 C   0  0  0  0  0  0  0  0  0  0  0  0
   -1.8540    9.1060   -6.7300 C   0  0  0  0  0  0  0  0  0  0  0  0
   -2.8420   10.5140   -5.0350 C   0  0  0  0  0  0  0  0  0  0  0  0
   -1.5560   14.4540   -0.9270 C   0  0  0  0  0  0  0  0  0  0  0  0
   -2.9560    9.4720   -5.9580 C   0  0  0  0  0  0  0  0  0  0  0  0
   -2.4280   14.7660    0.3090 C   0  0  0  0  0  0  0  0  0  0  0  0
   -3.9390   14.8420    0.1290 C   0  0  0  0  0  0  0  0  0  0  0  0
   -4.5680   15.0880   -1.1020 C   0  0  0  0  0  0  0  0  0  0  0  0
   -4.7470   14.6490    1.2520 C   0  0  0  0  0  0  0  0  0  0  0  0
   -5.9670   15.1280   -1.1830 C   0  0  0  0  0  0  0  0  0  0  0  0
   -6.1460   14.6860    1.1880 C   0  0  0  0  0  0  0  0  0  0  0  0
   -6.8310   14.4710    2.4100 N   0  0  0  0  0  0  0  0  0  0  0  0
   -6.7530   14.9230   -0.0400 C   0  0  0  0  0  0  0  0  0  0  0  0
   -7.8990   15.1740    2.9470 C   0  0  0  0  0  0  0  0  0  0  0  0
   -8.8690   15.5890    2.3280 O   0  0  0  0  0  0  0  0  0  0  0  0
   -7.6760   15.3240    4.3100 N   0  0  0  0  0  0  0  0  0  0  0  0
   -8.4480   16.0430    5.2570 C   0  0  0  0  0  0  0  0  0  0  0  0
   -9.1210   17.2030    4.8440 C   0  0  0  0  0  0  0  0  0  0  0  0
   -8.6020   15.6880    6.5960 C   0  0  0  0  0  0  0  0  0  0  0  0
   -9.8930   17.9820    5.6350 N   0  0  0  0  0  0  0  0  0  0  0  0
   -9.3920   16.4730    7.4420 C   0  0  0  0  0  0  0  0  0  0  0  0
  -10.0120   17.6000    6.9240 C   0  0  0  0  0  0  0  0  0  0  0  0
  2  1  1  1
  2  3  1  0
  2  4  1  0
  4  5  2  3
  4  6  1  0
  3  7  1  0
  5  8  1  0
  7  9  2  0
  7 10  1  0
  9 11  1  0
  8 12  1  0
  9 13  1  0
 10 14  2  0
 12 15  1  0
 13 16  2  0
 14 16  1  0
 15 17  1  0
 17 18  1  0
 18 19  2  0
 18 20  1  0
 19 21  1  0
 20 22  2  0
 22 23  1  0
 21 24  2  0
 22 24  1  0
 23 25  1  0
 25 26  2  0
 25 27  1  0
 27 28  1  0
 28 29  2  0
 28 30  1  0
 29 31  1  0
 30 32  2  0
 31 33  2  0
 32 33  1  0
M  END
>  <comRMSD>  (265) 
0.296363

>  <∆∆G>  (265) 
-12.897842

>  <N_constrained_atoms>  (265) 
29.0

>  <LE>  (265) 
-0.390844

>  <ref_pdb>  (265) 
x0104_0

>  <ref_mols>  (265) 
x0465_0_A_α,x0128_0_A_α

>  <%Rank>  (265) 
4.529856

>  <generation_date>  (265) 
nan

>  <method>  (265) 
nan

>  <submitter_email>  (265) 
nan

>  <original SMILES>  (265) 
C[C@@H](Oc1ccccc1F)C(O)=NCCCCc1cccc(NC(=O)Nc2cccnc2)c1

>  <ref_url>  (265) 
nan

>  <submitter_name>  (265) 
nan

>  <submitter_institution>  (265) 
nan

$$$$
x0421_0_A_α-x0864_0_A_α
     RDKit          3D

 25 27  0  0  0  0  0  0  0  0999 V2000
   -3.6600   15.1150   -2.9440 N   0  0  0  0  0  0  0  0  0  0  0  0
   -2.7040   14.9920   -1.9700 C   0  0  0  0  0  0  0  0  0  0  0  0
   -1.4110   14.9310   -2.1630 N   0  0  0  0  0  0  0  0  0  0  0  0
   -3.3090   14.9250   -0.6260 C   0  0  0  0  0  0  0  0  0  0  0  0
   -0.3300   14.8090   -1.1590 C   0  0  0  0  0  0  0  0  0  0  0  0
   -2.6920   14.9380    0.6130 C   0  0  0  0  0  0  0  0  0  0  0  0
   -4.6890   14.8300   -0.4440 N   0  0  0  0  0  0  0  0  0  0  0  0
    0.9350   14.2430   -1.8400 C   0  0  0  0  0  0  0  0  0  0  0  0
   -3.7030   14.8450    1.5190 N   0  0  0  0  0  0  0  0  0  0  0  0
   -4.8840   14.7810    0.8510 C   0  0  0  0  0  0  0  0  0  0  0  0
    0.8510   12.7880   -1.9900 N   0  0  0  0  0  0  0  0  0  0  0  0
   -6.2640   14.6610    1.5520 C   0  0  0  0  0  0  0  0  0  0  0  0
    0.6260   12.2440   -3.1340 C   0  0  0  0  0  0  0  0  0  0  0  0
   -7.5330   14.6630    0.7370 C   0  0  0  0  0  0  0  0  0  0  0  0
   -7.0620   13.3970    1.3870 C   0  0  0  0  0  0  0  0  0  0  0  0
    0.4140   12.8290   -4.5330 C   0  0  0  0  0  0  0  0  0  0  0  0
    0.5620   10.9000   -3.0670 O   0  0  0  0  0  0  0  0  0  0  0  0
   -0.2170   11.8810   -5.4760 N   0  0  0  0  0  0  0  0  0  0  0  0
   -1.5650   11.5910   -5.4100 C   0  0  0  0  0  0  0  0  0  0  0  0
    0.5560   11.3490   -6.4840 C   0  0  0  0  0  0  0  0  0  0  0  0
    1.6020   11.8310   -6.8890 O   0  0  0  0  0  0  0  0  0  0  0  0
   -2.0780   10.5400   -6.0560 C   0  0  0  0  0  0  0  0  0  0  0  0
    0.0470   10.0840   -7.0770 C   0  0  0  0  0  0  0  0  0  0  0  0
   -1.2190    9.7080   -6.8500 C   0  0  0  0  0  0  0  0  0  0  0  0
   -1.9260    8.1300   -7.5480 Br  0  0  0  0  0  0  0  0  0  0  0  0
  1  2  1  0
  2  3  2  3
  2  4  1  0
  3  5  1  0
  4  6  2  0
  4  7  1  0
  5  8  1  0
  6  9  1  0
  7 10  2  0
  9 10  1  0
  8 11  1  0
 10 12  1  0
 11 13  2  3
 12 14  1  0
 12 15  1  0
 14 15  1  0
 13 16  1  0
 13 17  1  0
 16 18  1  0
 18 19  1  0
 18 20  1  0
 20 21  2  0
 19 22  2  0
 20 23  1  0
 22 24  1  0
 23 24  2  0
 24 25  1  0
M  END
>  <comRMSD>  (266) 
0.282615

>  <∆∆G>  (266) 
-6.981065

>  <N_constrained_atoms>  (266) 
23.0

>  <LE>  (266) 
-0.279243

>  <ref_pdb>  (266) 
x0104_0

>  <ref_mols>  (266) 
x0421_0_A_α,x0864_0_A_α

>  <%Rank>  (266) 
4.547014

>  <generation_date>  (266) 
nan

>  <method>  (266) 
nan

>  <submitter_email>  (266) 
nan

>  <original SMILES>  (266) 
NC(=NCCN=C(O)Cn1ccc(Br)cc1=O)c1c[nH]c(C2CC2)n1

>  <ref_url>  (266) 
nan

>  <submitter_name>  (266) 
nan

>  <submitter_institution>  (266) 
nan

$$$$
x0628_0_A_α-EU0481_0_A_α
     RDKit          3D

 26 28  0  0  0  0  0  0  0  0999 V2000
   -1.0620    9.1740   -7.2300 C   0  0  0  0  0  0  0  0  0  0  0  0
   -0.9980   10.3530   -6.3430 C   0  0  0  0  0  0  0  0  0  0  0  0
   -1.9320   10.6140   -5.3700 N   0  0  0  0  0  0  0  0  0  0  0  0
   -0.0170   11.2520   -6.4260 N   0  0  0  0  0  0  0  0  0  0  0  0
   -0.3500   12.1190   -5.4470 N   0  0  0  0  0  0  0  0  0  0  0  0
   -1.5060   11.7370   -4.8050 C   0  0  0  0  0  0  0  0  0  0  0  0
   -2.1710   12.4550   -3.6540 C   0  0  0  0  0  0  0  0  0  0  0  0
    0.5130   13.2630   -5.2250 C   0  0  0  0  0  0  0  0  0  0  0  0
    1.6150   12.9380   -4.2200 C   0  0  0  0  0  0  0  0  0  0  0  0
   -3.1520   13.6090   -3.9570 C   0  0  0  0  0  0  0  0  0  0  0  0
    1.0740   12.2350   -3.0050 C   0  0  0  0  0  0  0  0  0  0  0  0
   -3.0070   14.8670   -3.0580 C   0  0  0  0  0  0  0  0  0  0  0  0
    0.5730   11.1230   -2.9840 O   0  0  0  0  0  0  0  0  0  0  0  0
    1.2020   12.9760   -1.8850 O   0  0  0  0  0  0  0  0  0  0  0  0
   -3.8440   14.8740   -1.7780 C   0  0  0  0  0  0  0  0  0  0  0  0
   -3.2210   15.0420   -0.5320 C   0  0  0  0  0  0  0  0  0  0  0  0
   -5.2420   14.7140   -1.8040 C   0  0  0  0  0  0  0  0  0  0  0  0
   -6.0130   14.7130   -0.6430 C   0  0  0  0  0  0  0  0  0  0  0  0
   -3.9690   15.0520    0.6420 C   0  0  0  0  0  0  0  0  0  0  0  0
   -7.3510   14.5480   -0.7150 N   0  0  0  0  0  0  0  0  0  0  0  0
   -5.3630   14.8870    0.5900 C   0  0  0  0  0  0  0  0  0  0  0  0
   -8.0750   14.5480    0.4300 C   0  0  0  0  0  0  0  0  0  0  0  0
   -6.1500   14.8910    1.7410 C   0  0  0  0  0  0  0  0  0  0  0  0
   -7.5270   14.7160    1.6910 C   0  0  0  0  0  0  0  0  0  0  0  0
   -8.3530   14.7170    2.9400 C   0  0  0  0  0  0  0  0  0  0  0  0
   -7.8760   13.7100    3.8820 N   0  0  0  0  0  0  0  0  0  0  0  0
  1  2  1  0
  2  3  1  0
  2  4  2  0
  4  5  1  0
  3  6  2  0
  5  6  1  0
  6  7  1  0
  5  8  1  0
  8  9  1  0
  7 10  1  0
  9 11  1  0
 10 12  1  0
 11 13  2  0
 11 14  1  0
 12 15  1  0
 15 16  2  0
 15 17  1  0
 17 18  2  0
 16 19  1  0
 18 20  1  0
 18 21  1  0
 19 21  2  0
 20 22  2  0
 21 23  1  0
 22 24  1  0
 23 24  2  0
 24 25  1  0
 25 26  1  0
M  END
>  <comRMSD>  (267) 
0.258143

>  <∆∆G>  (267) 
-4.626569

>  <N_constrained_atoms>  (267) 
24.0

>  <LE>  (267) 
-0.177945

>  <ref_pdb>  (267) 
x0104_0

>  <ref_mols>  (267) 
x0628_0_A_α

>  <%Rank>  (267) 
4.564173

>  <generation_date>  (267) 
nan

>  <method>  (267) 
nan

>  <submitter_email>  (267) 
nan

>  <original SMILES>  (267) 
Cc1nc(CCCc2ccc3cc(CN)cnc3c2)n(CCC(=O)O)n1

>  <ref_url>  (267) 
nan

>  <submitter_name>  (267) 
nan

>  <submitter_institution>  (267) 
nan

$$$$
x0253_0_A_α-x0805_0_A_α
     RDKit          3D

 23 24  0  0  0  0  0  0  0  0999 V2000
    0.4670   11.8910   -5.4880 N   0  0  0  0  0  0  0  0  0  0  0  0
    1.1470   11.6290   -6.6260 C   0  0  0  0  0  0  0  0  0  0  0  0
    2.2520   12.1080   -6.7260 O   0  0  0  0  0  0  0  0  0  0  0  0
    1.2280   12.5940   -4.4770 C   0  0  0  0  0  0  0  0  0  0  0  0
    0.6250   12.6150   -3.0620 C   0  0  0  0  0  0  0  0  0  0  0  0
    0.5240   10.7450   -7.6530 C   0  0  0  0  0  0  0  0  0  0  0  0
    1.7080   12.6610   -2.1430 O   0  0  0  0  0  0  0  0  0  0  0  0
   -0.1000   11.4480   -2.6980 O   0  0  0  0  0  0  0  0  0  0  0  0
   -0.1540   13.9260   -2.8840 C   0  0  0  0  0  0  0  0  0  0  0  0
   -0.4480    9.8410   -7.2090 C   0  0  0  0  0  0  0  0  0  0  0  0
    0.8600   10.7720   -9.0140 C   0  0  0  0  0  0  0  0  0  0  0  0
   -1.0820    8.9750   -8.1080 C   0  0  0  0  0  0  0  0  0  0  0  0
    0.2340    9.9120   -9.9130 C   0  0  0  0  0  0  0  0  0  0  0  0
   -1.6190   13.8860   -2.5610 C   0  0  0  0  0  0  0  0  0  0  0  0
   -2.1230    8.0120   -7.6220 C   0  0  0  0  0  0  0  0  0  0  0  0
   -0.7350    9.0170   -9.4610 C   0  0  0  0  0  0  0  0  0  0  0  0
   -2.5580   13.0870   -3.2260 C   0  0  0  0  0  0  0  0  0  0  0  0
   -2.0390   14.7080   -1.5340 C   0  0  0  0  0  0  0  0  0  0  0  0
   -3.9000   13.1380   -2.8360 C   0  0  0  0  0  0  0  0  0  0  0  0
   -3.3630   14.7760   -1.1380 C   0  0  0  0  0  0  0  0  0  0  0  0
   -3.5770   15.6550   -0.1130 O   0  0  0  0  0  0  0  0  0  0  0  0
   -4.3020   13.9840   -1.7920 C   0  0  0  0  0  0  0  0  0  0  0  0
   -4.4080   15.2370    0.9590 C   0  0  0  0  0  0  0  0  0  0  0  0
  1  2  1  0
  2  3  2  0
  1  4  1  0
  4  5  1  0
  2  6  1  0
  5  7  1  0
  5  8  1  0
  5  9  1  0
  6 10  2  0
  6 11  1  0
 10 12  1  0
 11 13  2  0
  9 14  1  0
 12 15  1  0
 12 16  2  0
 13 16  1  0
 14 17  2  0
 14 18  1  0
 17 19  1  0
 18 20  2  0
 20 21  1  0
 19 22  2  0
 20 22  1  0
 21 23  1  0
M  END
>  <comRMSD>  (268) 
0.336036

>  <∆∆G>  (268) 
-4.809976

>  <N_constrained_atoms>  (268) 
22.0

>  <LE>  (268) 
-0.209129

>  <ref_pdb>  (268) 
x0104_0

>  <ref_mols>  (268) 
x0253_0_A_α,x0805_0_A_α

>  <%Rank>  (268) 
4.581332

>  <generation_date>  (268) 
nan

>  <method>  (268) 
nan

>  <submitter_email>  (268) 
nan

>  <original SMILES>  (268) 
COc1cccc(CC(O)(O)CNC(=O)c2cccc(C)c2)c1

>  <ref_url>  (268) 
nan

>  <submitter_name>  (268) 
nan

>  <submitter_institution>  (268) 
nan

$$$$
x0421_0_A_α-x0855_0_A_α
     RDKit          3D

 23 25  0  0  0  0  0  0  0  0999 V2000
   -3.6600   15.2230   -2.8120 N   0  0  0  0  0  0  0  0  0  0  0  0
   -2.8090   14.8750   -1.7980 C   0  0  0  0  0  0  0  0  0  0  0  0
   -1.5630   14.5510   -1.8220 N   0  0  0  0  0  0  0  0  0  0  0  0
   -3.4690   14.8800   -0.4920 C   0  0  0  0  0  0  0  0  0  0  0  0
   -0.8430   14.5140   -3.0950 C   0  0  0  0  0  0  0  0  0  0  0  0
   -2.8620   15.0300    0.7410 C   0  0  0  0  0  0  0  0  0  0  0  0
   -4.8430   14.7210   -0.3320 N   0  0  0  0  0  0  0  0  0  0  0  0
    0.6740   14.5970   -2.8300 C   0  0  0  0  0  0  0  0  0  0  0  0
   -3.8690   14.9580    1.6500 N   0  0  0  0  0  0  0  0  0  0  0  0
   -5.0330   14.7720    0.9710 C   0  0  0  0  0  0  0  0  0  0  0  0
    1.2290   13.2940   -2.5050 O   0  0  0  0  0  0  0  0  0  0  0  0
   -6.4030   14.6350    1.6810 C   0  0  0  0  0  0  0  0  0  0  0  0
    0.8340   12.2070   -3.2330 C   0  0  0  0  0  0  0  0  0  0  0  0
   -7.6760   14.6480    0.8760 C   0  0  0  0  0  0  0  0  0  0  0  0
   -7.1870   13.3670    1.4880 C   0  0  0  0  0  0  0  0  0  0  0  0
    0.6560   11.0860   -2.7700 O   0  0  0  0  0  0  0  0  0  0  0  0
    0.6330   12.5430   -4.6870 C   0  0  0  0  0  0  0  0  0  0  0  0
   -0.4130   11.6870   -5.1970 N   0  0  0  0  0  0  0  0  0  0  0  0
   -0.3020   10.7340   -6.1690 C   0  0  0  0  0  0  0  0  0  0  0  0
   -1.6650   11.7870   -4.6910 N   0  0  0  0  0  0  0  0  0  0  0  0
   -1.5470   10.1850   -6.2830 C   0  0  0  0  0  0  0  0  0  0  0  0
   -2.3530   10.8610   -5.3620 C   0  0  0  0  0  0  0  0  0  0  0  0
   -2.0980    8.8140   -7.4170 Br  0  0  0  0  0  0  0  0  0  0  0  0
  1  2  1  0
  2  3  2  3
  2  4  1  0
  3  5  1  0
  4  6  2  0
  4  7  1  0
  5  8  1  0
  6  9  1  0
  7 10  2  0
  9 10  1  0
  8 11  1  0
 10 12  1  0
 11 13  1  0
 12 14  1  0
 12 15  1  0
 14 15  1  0
 13 16  2  0
 13 17  1  0
 17 18  1  0
 18 19  1  0
 18 20  1  0
 19 21  2  0
 20 22  2  0
 21 22  1  0
 21 23  1  0
M  END
>  <comRMSD>  (269) 
0.238672

>  <∆∆G>  (269) 
-6.842231

>  <N_constrained_atoms>  (269) 
21.0

>  <LE>  (269) 
-0.297488

>  <ref_pdb>  (269) 
x0104_0

>  <ref_mols>  (269) 
x0421_0_A_α,x0855_0_A_α

>  <%Rank>  (269) 
4.59849

>  <generation_date>  (269) 
nan

>  <method>  (269) 
nan

>  <submitter_email>  (269) 
nan

>  <original SMILES>  (269) 
NC(=NCCOC(=O)Cn1cc(Br)cn1)c1c[nH]c(C2CC2)n1

>  <ref_url>  (269) 
nan

>  <submitter_name>  (269) 
nan

>  <submitter_institution>  (269) 
nan

$$$$
x0950_0_A_α-x0722_0_A_α
     RDKit          3D

 20 20  0  0  0  0  0  0  0  0999 V2000
    2.7600   13.0160   -4.5190 C   0  0  0  0  0  0  0  0  0  0  0  0
    1.2770   12.6990   -4.4590 C   0  0  1  0  0  0  0  0  0  0  0  0
    0.9120   12.0420   -5.6610 O   0  0  0  0  0  0  0  0  0  0  0  0
    0.9860   11.9480   -3.1550 C   0  0  0  0  0  0  0  0  0  0  0  0
    0.3500   10.9050   -3.0470 O   0  0  0  0  0  0  0  0  0  0  0  0
    1.5430   12.6220   -2.1250 O   0  0  0  0  0  0  0  0  0  0  0  0
    0.7120   13.6200   -1.5660 C   0  0  0  0  0  0  0  0  0  0  0  0
   -0.7500   13.1800   -1.5990 C   0  0  0  0  0  0  0  0  0  0  0  0
   -1.7500   14.3180   -1.6840 C   0  0  0  0  0  0  0  0  0  0  0  0
   -2.3240   14.6740   -0.3650 C   0  0  0  0  0  0  0  0  0  0  0  0
   -3.5820   15.1650   -0.0340 C   0  0  0  0  0  0  0  0  0  0  0  0
   -1.6300   14.5670    0.8240 N   0  0  0  0  0  0  0  0  0  0  0  0
   -0.2860   14.1350    1.1150 C   0  0  0  0  0  0  0  0  0  0  0  0
   -4.7530   15.4910   -0.9190 C   0  0  0  0  0  0  0  0  0  0  0  0
   -2.3420   14.9370    1.8590 N   0  0  0  0  0  0  0  0  0  0  0  0
   -3.5000   15.3020    1.3650 C   0  0  0  0  0  0  0  0  0  0  0  0
   -4.4770   15.7900    2.3090 C   0  0  0  0  0  0  0  0  0  0  0  0
   -6.0070   14.6870   -0.6210 C   0  0  0  0  0  0  0  0  0  0  0  0
   -7.1480   15.1180   -0.7550 O   0  0  0  0  0  0  0  0  0  0  0  0
   -5.8150   13.4060   -0.1890 N   0  0  0  0  0  0  0  0  0  0  0  0
  2  1  1  6
  2  3  1  0
  2  4  1  0
  4  5  2  0
  4  6  1  0
  6  7  1  0
  7  8  1  0
  8  9  1  0
  9 10  1  0
 10 11  2  0
 10 12  1  0
 12 13  1  0
 11 14  1  0
 12 15  1  0
 11 16  1  0
 15 16  2  0
 16 17  1  0
 14 18  1  0
 18 19  2  0
 18 20  1  0
M  END
>  <comRMSD>  (270) 
0.276963

>  <∆∆G>  (270) 
-11.378576

>  <N_constrained_atoms>  (270) 
18.0

>  <LE>  (270) 
-0.568929

>  <ref_pdb>  (270) 
x0104_0

>  <ref_mols>  (270) 
x0950_0_A_α,x0722_0_A_α

>  <%Rank>  (270) 
4.615649

>  <generation_date>  (270) 
nan

>  <method>  (270) 
nan

>  <submitter_email>  (270) 
nan

>  <original SMILES>  (270) 
Cc1nn(C)c(CCCOC(=O)[C@@H](C)O)c1CC(N)=O

>  <ref_url>  (270) 
nan

>  <submitter_name>  (270) 
nan

>  <submitter_institution>  (270) 
nan

$$$$
x1015_0_A_α-x0592_0_A_α
     RDKit          3D

 28 30  0  0  0  0  0  0  0  0999 V2000
   -1.3970   14.2050   -4.1100 C   0  0  0  0  0  0  0  0  0  0  0  0
   -0.0140   13.6430   -3.7880 C   0  0  2  0  0  0  0  0  0  0  0  0
    0.0200   12.1750   -3.9210 N   0  0  0  0  0  0  0  0  0  0  0  0
    0.3580   13.7270   -2.2880 C   0  0  0  0  0  0  0  0  0  0  0  0
    0.1230   14.6280   -1.3840 N   0  0  0  0  0  0  0  0  0  0  0  0
    0.4300   11.6040   -2.7110 C   0  0  0  0  0  0  0  0  0  0  0  0
    1.0300   12.5990   -2.0300 N   0  0  0  0  0  0  0  0  0  0  0  0
   -0.4130   11.4360   -5.0530 C   0  0  0  0  0  0  0  0  0  0  0  0
    0.3030   10.4520   -2.2940 O   0  0  0  0  0  0  0  0  0  0  0  0
   -0.6230   15.8790   -1.5450 C   0  0  0  0  0  0  0  0  0  0  0  0
    0.1120   11.6500   -6.3350 C   0  0  0  0  0  0  0  0  0  0  0  0
   -1.3970   10.4430   -4.9090 C   0  0  0  0  0  0  0  0  0  0  0  0
   -1.8570   15.7000   -2.4050 C   0  0  0  0  0  0  0  0  0  0  0  0
   -0.3290   10.8960   -7.4300 C   0  0  0  0  0  0  0  0  0  0  0  0
   -1.8400    9.6890   -5.9990 C   0  0  0  0  0  0  0  0  0  0  0  0
   -3.1130   15.4440   -1.6830 N   0  0  0  0  0  0  0  0  0  0  0  0
   -1.3020    9.9190   -7.2570 C   0  0  0  0  0  0  0  0  0  0  0  0
   -1.8440    8.9890   -8.5960 Cl  0  0  0  0  0  0  0  0  0  0  0  0
   -3.3680   15.2120   -0.4420 C   0  0  0  0  0  0  0  0  0  0  0  0
   -2.6240   15.1050    0.7070 N   0  0  0  0  0  0  0  0  0  0  0  0
   -4.8020   15.0400   -0.3110 C   0  0  0  0  0  0  0  0  0  0  0  0
   -5.7340   15.1980   -1.3600 C   0  0  0  0  0  0  0  0  0  0  0  0
   -5.5930   14.7060    0.7760 C   0  0  0  0  0  0  0  0  0  0  0  0
   -6.9900   14.9900   -0.9930 N   0  0  0  0  0  0  0  0  0  0  0  0
   -6.8900   14.6950    0.3090 N   0  0  0  0  0  0  0  0  0  0  0  0
   -8.1190   14.4160    1.0290 C   0  0  0  0  0  0  0  0  0  0  0  0
   -7.8850   13.9490    2.4520 C   0  0  0  0  0  0  0  0  0  0  0  0
   -7.2350   14.9470    3.2260 O   0  0  0  0  0  0  0  0  0  0  0  0
  2  1  1  1
  2  3  1  0
  2  4  1  0
  4  5  2  3
  3  6  1  0
  4  7  1  0
  6  7  1  0
  3  8  1  0
  6  9  2  0
  5 10  1  0
  8 11  2  0
  8 12  1  0
 10 13  1  0
 11 14  1  0
 12 15  2  0
 13 16  1  0
 14 17  2  0
 15 17  1  0
 17 18  1  0
 16 19  2  3
 19 20  1  0
 19 21  1  0
 21 22  1  0
 21 23  2  0
 22 24  2  0
 23 25  1  0
 24 25  1  0
 25 26  1  0
 26 27  1  0
 27 28  1  0
M  END
>  <comRMSD>  (271) 
0.387804

>  <∆∆G>  (271) 
-9.635573

>  <N_constrained_atoms>  (271) 
26.0

>  <LE>  (271) 
-0.344128

>  <ref_pdb>  (271) 
x0104_0

>  <ref_mols>  (271) 
x1015_0_A_α,x0592_0_A_α

>  <%Rank>  (271) 
4.632807

>  <generation_date>  (271) 
nan

>  <method>  (271) 
nan

>  <submitter_email>  (271) 
nan

>  <original SMILES>  (271) 
CC1C(=NCCN=C(N)c2cnn(CCO)c2)NC(=O)N1c1ccc(Cl)cc1

>  <ref_url>  (271) 
nan

>  <submitter_name>  (271) 
nan

>  <submitter_institution>  (271) 
nan

$$$$
x0471_0_A_α-x0253_0_A_α
     RDKit          3D

 33 35  0  0  0  0  0  0  0  0999 V2000
   -8.8450   14.1580    2.8030 N   0  0  0  0  0  0  0  0  0  0  0  0
   -9.1940   15.1880    3.6610 C   0  0  0  0  0  0  0  0  0  0  0  0
   -9.4580   16.3110    3.2510 O   0  0  0  0  0  0  0  0  0  0  0  0
   -8.8730   14.3880    1.3660 C   0  0  0  0  0  0  0  0  0  0  0  0
   -9.2670   14.8290    5.1510 C   0  0  0  0  0  0  0  0  0  0  0  0
   -7.4780   14.5740    0.8690 C   0  0  0  0  0  0  0  0  0  0  0  0
   -9.5760   13.3510    5.3800 C   0  0  0  0  0  0  0  0  0  0  0  0
   -7.9920   15.2650    5.8720 C   0  0  0  0  0  0  0  0  0  0  0  0
   -7.1410   14.9130   -0.4310 N   0  0  0  0  0  0  0  0  0  0  0  0
   -6.3970   14.4440    1.5960 N   0  0  0  0  0  0  0  0  0  0  0  0
   -5.3330   14.6920    0.7740 C   0  0  0  0  0  0  0  0  0  0  0  0
   -5.7650   14.9920   -0.5080 C   0  0  0  0  0  0  0  0  0  0  0  0
   -4.8760   15.2870   -1.5430 C   0  0  0  0  0  0  0  0  0  0  0  0
   -3.9650   14.6720    1.0710 C   0  0  0  0  0  0  0  0  0  0  0  0
   -3.5040   15.2570   -1.2270 C   0  0  0  0  0  0  0  0  0  0  0  0
   -3.0360   14.9480    0.0760 C   0  0  0  0  0  0  0  0  0  0  0  0
   -1.5620   14.8910    0.4670 C   0  0  0  0  0  0  0  0  0  0  0  0
   -0.6040   14.8040   -0.7250 C   0  0  0  0  0  0  0  0  0  0  0  0
    0.0440   13.4390   -0.9000 C   0  0  0  0  0  0  0  0  0  0  0  0
    0.6890   13.4610   -2.2100 N   0  0  0  0  0  0  0  0  0  0  0  0
    0.7030   12.4450   -2.9910 C   0  0  0  0  0  0  0  0  0  0  0  0
    0.1690   11.2380   -2.7080 O   0  0  0  0  0  0  0  0  0  0  0  0
    1.3490   12.6000   -4.3590 C   0  0  0  0  0  0  0  0  0  0  0  0
    0.5690   11.9530   -5.4090 N   0  0  0  0  0  0  0  0  0  0  0  0
    1.2150   11.6650   -6.5870 C   0  0  0  0  0  0  0  0  0  0  0  0
    2.3070   12.1420   -6.7910 O   0  0  0  0  0  0  0  0  0  0  0  0
    0.5650   10.7460   -7.5610 C   0  0  0  0  0  0  0  0  0  0  0  0
   -0.4870    9.9010   -7.1810 C   0  0  0  0  0  0  0  0  0  0  0  0
    1.0240   10.7300   -8.8810 C   0  0  0  0  0  0  0  0  0  0  0  0
   -1.0800    9.0440   -8.1180 C   0  0  0  0  0  0  0  0  0  0  0  0
    0.4350    9.8810   -9.8180 C   0  0  0  0  0  0  0  0  0  0  0  0
   -2.2070    8.1390   -7.7040 C   0  0  0  0  0  0  0  0  0  0  0  0
   -0.6140    9.0400   -9.4380 C   0  0  0  0  0  0  0  0  0  0  0  0
  1  2  1  0
  2  3  2  0
  1  4  1  0
  2  5  1  0
  4  6  1  0
  5  7  1  0
  5  8  1  0
  6  9  1  0
  6 10  2  0
 10 11  1  0
  9 12  1  0
 11 12  2  0
 12 13  1  0
 11 14  1  0
 13 15  2  0
 14 16  2  0
 15 16  1  0
 16 17  1  0
 17 18  1  0
 18 19  1  0
 19 20  1  0
 20 21  2  3
 21 22  1  0
 21 23  1  0
 23 24  1  0
 24 25  1  0
 25 26  2  0
 25 27  1  0
 27 28  2  0
 27 29  1  0
 28 30  1  0
 29 31  2  0
 30 32  1  0
 30 33  2  0
 31 33  1  0
M  END
>  <comRMSD>  (272) 
0.345091

>  <∆∆G>  (272) 
-8.824668

>  <N_constrained_atoms>  (272) 
30.0

>  <LE>  (272) 
-0.267414

>  <ref_pdb>  (272) 
x0104_0

>  <ref_mols>  (272) 
x0471_0_A_α,x0253_0_A_α

>  <%Rank>  (272) 
4.649966

>  <generation_date>  (272) 
nan

>  <method>  (272) 
nan

>  <submitter_email>  (272) 
nan

>  <original SMILES>  (272) 
Cc1cccc(C(=O)NCC(O)=NCCCc2ccc3[nH]c(CNC(=O)C(C)C)nc3c2)c1

>  <ref_url>  (272) 
nan

>  <submitter_name>  (272) 
nan

>  <submitter_institution>  (272) 
nan

$$$$
5cms_O_14_O_γ-3q6z_0_A_β
     RDKit          3D

 16 16  0  0  0  0  0  0  0  0999 V2000
   -1.4010   12.5400   -4.1430 O   0  0  0  0  0  0  0  0  0  0  0  0
   -0.2240   13.3050   -3.9750 C   0  0  2  0  0  0  0  0  0  0  0  0
   -0.2930   14.2910   -2.7960 C   0  0  0  0  0  0  0  0  0  0  0  0
    0.0780   14.1920   -5.1780 C   0  0  2  0  0  0  0  0  0  0  0  0
    1.4960   14.0910   -5.3620 O   0  0  0  0  0  0  0  0  0  0  0  0
    0.0550   15.5880   -3.3040 O   0  0  0  0  0  0  0  0  0  0  0  0
   -0.4020   15.5570   -4.6620 C   0  0  1  0  0  0  0  0  0  0  0  0
    0.0720   16.8270   -5.3450 C   0  0  0  0  0  0  0  0  0  0  0  0
   -1.2340   18.0270   -5.7180 P   0  0  2  0  0  0  0  0  0  0  0  0
   -0.5410   19.2750   -6.3760 O   0  0  0  0  0  0  0  0  0  0  0  0
   -1.9580   18.4300   -4.5020 O   0  0  0  0  0  0  0  0  0  0  0  0
   -2.2900   17.4260   -6.7790 O   0  0  0  0  0  0  0  0  0  0  0  0
   -0.2780   19.7010   -7.8380 P   0  0  0  0  0  0  0  0  0  0  0  0
   -1.6020   20.4990   -8.2030 O   0  0  0  0  0  0  0  0  0  0  0  0
    0.0960   18.6530   -8.8080 O   0  0  0  0  0  0  0  0  0  0  0  0
    0.7720   20.8940   -7.7140 O   0  0  0  0  0  0  0  0  0  0  0  0
  2  1  1  6
  2  3  1  0
  2  4  1  0
  4  5  1  1
  3  6  1  0
  4  7  1  0
  6  7  1  0
  7  8  1  6
  8  9  1  0
  9 10  1  0
  9 11  2  0
  9 12  1  6
 10 13  1  0
 13 14  1  0
 13 15  2  0
 13 16  1  0
M  END
>  <comRMSD>  (273) 
0.570925

>  <∆∆G>  (273) 
-10.970894

>  <N_constrained_atoms>  (273) 
16.0

>  <LE>  (273) 
-0.685681

>  <ref_pdb>  (273) 
x0104_0

>  <ref_mols>  (273) 


>  <%Rank>  (273) 
4.667124

>  <generation_date>  (273) 
nan

>  <method>  (273) 
nan

>  <submitter_email>  (273) 
nan

>  <original SMILES>  (273) 
O=P(O)(O)OP(=O)(O)CC1OCC(O)C1O

>  <ref_url>  (273) 
nan

>  <submitter_name>  (273) 
nan

>  <submitter_institution>  (273) 
nan

$$$$
x0091_0_B_α-x0729_1_B_α
     RDKit          3D

 30 32  0  0  0  0  0  0  0  0999 V2000
   12.7410   21.1560   13.6660 N   0  0  0  0  0  0  0  0  0  0  0  0
   12.1820   21.9730   14.7330 C   0  0  0  0  0  0  0  0  0  0  0  0
   12.2730   19.7590   13.5760 C   0  0  0  0  0  0  0  0  0  0  0  0
   13.7000   21.5730   12.7420 C   0  0  0  0  0  0  0  0  0  0  0  0
   13.9860   20.8850   11.7670 O   0  0  0  0  0  0  0  0  0  0  0  0
   14.3200   22.7950   12.9800 N   0  0  0  0  0  0  0  0  0  0  0  0
   13.1800   18.7750   14.2720 C   0  0  0  0  0  0  0  0  0  0  0  0
   12.6910   17.7570   15.0020 N   0  0  0  0  0  0  0  0  0  0  0  0
   14.6010   18.7460   14.2770 C   0  0  0  0  0  0  0  0  0  0  0  0
   15.6890   22.9510   12.5530 C   0  0  2  0  0  0  0  0  0  0  0  0
   13.7810   17.0610   15.4870 O   0  0  0  0  0  0  0  0  0  0  0  0
   14.9210   17.6550   15.0510 C   0  0  0  0  0  0  0  0  0  0  0  0
   16.7200   23.5450   13.4540 C   0  0  0  0  0  0  0  0  0  0  0  0
   16.3460   24.2730   12.1960 C   0  0  1  0  0  0  0  0  0  0  0  0
   16.1810   17.0250   15.4850 C   0  0  0  0  0  0  0  0  0  0  0  0
   17.2330   24.3740   10.9550 C   0  0  0  0  0  0  0  0  0  0  0  0
   17.4260   25.7350   10.2610 C   0  0  0  0  0  0  0  0  0  0  0  0
   18.5660   25.8500    9.3320 N   0  0  0  0  0  0  0  0  0  0  0  0
   19.0040   27.2330    8.7900 S   0  0  2  0  0  0  0  0  0  0  0  0
   19.5950   28.2880    9.5840 O   0  0  0  0  0  0  0  0  0  0  0  0
   17.6760   27.9750    7.8600 C   0  0  0  0  0  0  0  0  0  0  0  0
   20.2160   26.8150    7.6660 N   0  0  0  0  0  0  0  0  0  0  0  0
   21.6320   27.0040    7.9660 C   0  0  0  0  0  0  0  0  0  0  0  0
   19.8770   26.5880    6.2560 C   0  0  2  0  0  0  0  0  0  0  0  0
   20.0490   25.1050    5.8750 C   0  0  0  0  0  0  0  0  0  0  0  0
   22.3280   27.9740    7.0060 C   0  0  0  0  0  0  0  0  0  0  0  0
   20.5620   27.5570    5.2770 C   0  0  2  0  0  0  0  0  0  0  0  0
   20.2470   27.2570    3.8710 C   0  0  0  0  0  0  0  0  0  0  0  0
   22.0610   27.6510    5.5350 C   0  0  0  0  0  0  0  0  0  0  0  0
   19.9870   27.0520    2.7630 N   0  0  0  0  0  0  0  0  0  0  0  0
  1  2  1  0
  1  3  1  0
  1  4  1  0
  4  5  2  0
  4  6  1  0
  3  7  1  0
  7  8  2  0
  7  9  1  0
 10  6  1  1
  8 11  1  0
  9 12  2  0
 11 12  1  0
 10 13  1  0
 10 14  1  0
 13 14  1  0
 12 15  1  0
 14 16  1  6
 16 17  1  0
 17 18  1  0
 18 19  2  0
 19 20  2  0
 19 21  1  6
 19 22  1  0
 22 23  1  0
 22 24  1  0
 24 25  1  6
 23 26  1  0
 24 27  1  0
 27 28  1  6
 26 29  1  0
 27 29  1  0
 28 30  3  0
M  END
>  <comRMSD>  (274) 
0.383425

>  <∆∆G>  (274) 
-7.534497

>  <N_constrained_atoms>  (274) 
28.0

>  <LE>  (274) 
-0.25115

>  <ref_pdb>  (274) 
x0104_0

>  <ref_mols>  (274) 
x0091_0_B_α,x0729_1_B_α

>  <%Rank>  (274) 
4.684283

>  <generation_date>  (274) 
nan

>  <method>  (274) 
nan

>  <submitter_email>  (274) 
nan

>  <original SMILES>  (274) 
Cc1cc(CN(C)C(=O)NC2CC2CCN=S(C)(=O)N2CCCC(C#N)C2C)no1

>  <ref_url>  (274) 
nan

>  <submitter_name>  (274) 
nan

>  <submitter_institution>  (274) 
nan

$$$$
x0689_0_A_α-x0128_0_A_α
     RDKit          3D

 24 26  0  0  0  0  0  0  0  0999 V2000
   -3.4270   15.0510    1.6490 N   0  0  0  0  0  0  0  0  0  0  0  0
   -2.1920   15.1090    0.9320 C   0  0  1  0  0  0  0  0  0  0  0  0
   -1.3730   14.2880    1.7350 N   0  0  0  0  0  0  0  0  0  0  0  0
   -2.2260   14.8110   -0.4650 N   0  0  0  0  0  0  0  0  0  0  0  0
   -1.0150   14.5320   -1.0480 C   0  0  0  0  0  0  0  0  0  0  0  0
   -0.0500   14.1850    1.1890 C   0  0  0  0  0  0  0  0  0  0  0  0
   -3.2480   15.5100   -1.1970 C   0  0  0  0  0  0  0  0  0  0  0  0
    0.0470   14.2310   -0.3040 C   0  0  0  0  0  0  0  0  0  0  0  0
   -4.6380   15.2110   -0.6840 C   0  0  0  0  0  0  0  0  0  0  0  0
   -5.6360   15.0260   -1.6300 C   0  0  0  0  0  0  0  0  0  0  0  0
   -4.9700   15.1100    0.6900 C   0  0  0  0  0  0  0  0  0  0  0  0
   -6.9350   14.7430   -1.2360 C   0  0  0  0  0  0  0  0  0  0  0  0
   -6.2820   14.8190    1.0980 C   0  0  0  0  0  0  0  0  0  0  0  0
   -6.7100   14.7020    2.4440 N   0  0  0  0  0  0  0  0  0  0  0  0
   -7.2550   14.6380    0.1150 C   0  0  0  0  0  0  0  0  0  0  0  0
   -7.8780   15.1990    3.0190 C   0  0  0  0  0  0  0  0  0  0  0  0
   -8.8720   15.5410    2.3870 O   0  0  0  0  0  0  0  0  0  0  0  0
   -7.7630   15.2580    4.4060 N   0  0  0  0  0  0  0  0  0  0  0  0
   -8.5280   16.0480    5.2990 C   0  0  0  0  0  0  0  0  0  0  0  0
   -9.1620   17.2020    4.8370 C   0  0  0  0  0  0  0  0  0  0  0  0
   -8.6960   15.7420    6.6450 C   0  0  0  0  0  0  0  0  0  0  0  0
   -9.9200   18.0270    5.5980 N   0  0  0  0  0  0  0  0  0  0  0  0
   -9.4700   16.5740    7.4570 C   0  0  0  0  0  0  0  0  0  0  0  0
  -10.0550   17.6930    6.8930 C   0  0  0  0  0  0  0  0  0  0  0  0
  2  1  1  1
  2  3  1  0
  2  4  1  0
  4  5  1  0
  3  6  1  0
  4  7  1  0
  5  8  2  0
  6  8  1  0
  7  9  1  0
  9 10  2  0
  9 11  1  0
 10 12  1  0
 11 13  2  0
 13 14  1  0
 12 15  2  0
 13 15  1  0
 14 16  1  0
 16 17  2  0
 16 18  1  0
 18 19  1  0
 19 20  2  0
 19 21  1  0
 20 22  1  0
 21 23  2  0
 22 24  2  0
 23 24  1  0
M  END
>  <comRMSD>  (275) 
0.335068

>  <∆∆G>  (275) 
-3.815967

>  <N_constrained_atoms>  (275) 
23.0

>  <LE>  (275) 
-0.158999

>  <ref_pdb>  (275) 
x0104_0

>  <ref_mols>  (275) 
x0689_0_A_α,x0128_0_A_α

>  <%Rank>  (275) 
4.701441

>  <generation_date>  (275) 
nan

>  <method>  (275) 
nan

>  <submitter_email>  (275) 
nan

>  <original SMILES>  (275) 
NC1NCC=CN1Cc1cccc(NC(=O)Nc2cccnc2)c1

>  <ref_url>  (275) 
nan

>  <submitter_name>  (275) 
nan

>  <submitter_institution>  (275) 
nan

$$$$
x0685_1_A_α-x0631_0_A_β
     RDKit          3D

 20 21  0  0  0  0  0  0  0  0999 V2000
   -1.3840   10.5140   -5.1450 N   0  0  0  0  0  0  0  0  0  0  0  0
   -1.5280   11.8280   -4.4640 C   0  0  0  0  0  0  0  0  0  0  0  0
   -0.1880   12.5200   -4.1900 C   0  0  0  0  0  0  0  0  0  0  0  0
   -0.9560   10.5980   -6.5890 C   0  0  1  0  0  0  0  0  0  0  0  0
   -0.4360    9.1910   -7.1990 C   0  0  1  0  0  0  0  0  0  0  0  0
   -2.1330   11.1940   -7.3790 C   0  0  0  0  0  0  0  0  0  0  0  0
    0.6160   11.9620   -2.6850 S   0  0  0  0  0  0  0  0  0  0  0  0
   -1.2390    8.7740   -8.4470 C   0  0  0  0  0  0  0  0  0  0  0  0
   -1.9220   11.2200   -8.8790 C   0  0  0  0  0  0  0  0  0  0  0  0
    0.9730    9.4120   -7.6470 N   0  0  0  0  0  0  0  0  0  0  0  0
   -0.7500    8.1000   -6.1570 C   0  0  0  0  0  0  0  0  0  0  0  0
    2.1630   12.3220   -2.8810 O   0  0  0  0  0  0  0  0  0  0  0  0
    0.3530   10.3840   -2.5380 O   0  0  0  0  0  0  0  0  0  0  0  0
    0.0250   12.7190   -1.4030 O   0  0  0  0  0  0  0  0  0  0  0  0
   -1.5500    9.8630   -9.4610 C   0  0  0  0  0  0  0  0  0  0  0  0
    1.1840    9.1310   -9.0420 N   0  0  0  0  0  0  0  0  0  0  0  0
    1.2840   10.7830   -7.5250 N   0  0  0  0  0  0  0  0  0  0  0  0
   -2.2490    7.8620   -6.0510 C   0  0  0  0  0  0  0  0  0  0  0  0
    1.0670   10.4390   -9.6980 C   0  0  0  0  0  0  0  0  0  0  0  0
    0.6370   11.3470   -8.6480 N   0  0  0  0  0  0  0  0  0  0  0  0
  1  2  1  0
  2  3  1  0
  4  1  1  1
  4  5  1  0
  4  6  1  0
  3  7  1  0
  5  8  1  0
  6  9  1  0
  5 10  1  0
  5 11  1  1
  7 12  1  0
  7 13  1  0
  7 14  1  0
  8 15  1  0
  9 15  1  0
 10 16  1  0
 10 17  1  0
 11 18  1  0
 16 19  1  0
 17 20  1  0
 19 20  1  0
M  END
>  <comRMSD>  (276) 
0.435012

>  <∆∆G>  (276) 
-4.907155

>  <N_constrained_atoms>  (276) 
20.0

>  <LE>  (276) 
-0.245358

>  <ref_pdb>  (276) 
x0104_0

>  <ref_mols>  (276) 
x0685_1_A_α,x0631_0_A_β

>  <%Rank>  (276) 
4.7186

>  <generation_date>  (276) 
nan

>  <method>  (276) 
nan

>  <submitter_email>  (276) 
nan

>  <original SMILES>  (276) 
CCC1(N2NCNN2)CCCCC1NCCS(O)(O)O

>  <ref_url>  (276) 
nan

>  <submitter_name>  (276) 
nan

>  <submitter_institution>  (276) 
nan

$$$$
x0574_0_A_α-x0837_0_A_α
     RDKit          3D

 13 14  0  0  0  0  0  0  0  0999 V2000
    0.1660   14.1030    2.1320 N   0  0  0  0  0  0  0  0  0  0  0  0
   -0.9070   14.3180    1.4050 C   0  0  0  0  0  0  0  0  0  0  0  0
   -2.0370   14.3890    1.9850 N   0  0  0  0  0  0  0  0  0  0  0  0
   -0.9180   14.5030   -0.2910 S   0  0  0  0  0  0  0  0  0  0  0  0
   -3.0320   14.5680    1.0860 C   0  0  0  0  0  0  0  0  0  0  0  0
   -2.6500   14.6570   -0.2390 C   0  0  0  0  0  0  0  0  0  0  0  0
   -4.3780   14.6550    1.4420 C   0  0  0  0  0  0  0  0  0  0  0  0
   -3.6230   14.8340   -1.2350 C   0  0  0  0  0  0  0  0  0  0  0  0
   -3.1410   14.9560   -3.2550 I   0  0  0  0  0  0  0  0  0  0  0  0
   -5.3470   14.8230    0.4880 C   0  0  0  0  0  0  0  0  0  0  0  0
   -4.9780   14.9170   -0.8520 C   0  0  0  0  0  0  0  0  0  0  0  0
   -6.6830   14.9000    0.7760 O   0  0  0  0  0  0  0  0  0  0  0  0
   -7.0380   14.5730    2.1280 C   0  0  0  0  0  0  0  0  0  0  0  0
  1  2  1  0
  2  3  2  0
  2  4  1  0
  3  5  1  0
  4  6  1  0
  5  6  2  0
  5  7  1  0
  6  8  1  0
  8  9  1  0
  7 10  2  0
  8 11  2  0
 10 11  1  0
 10 12  1  0
 12 13  1  0
M  END
>  <comRMSD>  (277) 
0.504931

>  <∆∆G>  (277) 
-9.143853

>  <N_constrained_atoms>  (277) 
13.0

>  <LE>  (277) 
-0.703373

>  <ref_pdb>  (277) 
x0104_0

>  <ref_mols>  (277) 
x0574_0_A_α,x0837_0_A_α

>  <%Rank>  (277) 
4.735758

>  <generation_date>  (277) 
nan

>  <method>  (277) 
nan

>  <submitter_email>  (277) 
nan

>  <original SMILES>  (277) 
COc1cc(I)c2sc(N)nc2c1

>  <ref_url>  (277) 
nan

>  <submitter_name>  (277) 
nan

>  <submitter_institution>  (277) 
nan

$$$$
x0104_0_A_α-x0592_0_A_α
     RDKit          3D

 17 18  0  0  0  0  0  0  0  0999 V2000
   -7.9120   14.7620    3.1820 C   0  0  0  0  0  0  0  0  0  0  0  0
   -8.0000   15.2070    4.4790 N   0  0  0  0  0  0  0  0  0  0  0  0
   -9.0860   15.1640    5.3030 C   0  0  0  0  0  0  0  0  0  0  0  0
   -8.5810   15.1520    2.1470 N   0  0  0  0  0  0  0  0  0  0  0  0
   -8.2440   14.4200    0.9020 C   0  0  0  0  0  0  0  0  0  0  0  0
   -9.1720   15.2490    6.6800 C   0  0  0  0  0  0  0  0  0  0  0  0
  -10.6550   14.9750    4.6160 S   0  0  0  0  0  0  0  0  0  0  0  0
   -6.9350   14.6880    0.2730 N   0  0  0  0  0  0  0  0  0  0  0  0
  -10.5150   15.1580    7.1640 C   0  0  0  0  0  0  0  0  0  0  0  0
  -11.4220   15.0060    6.1420 C   0  0  0  0  0  0  0  0  0  0  0  0
   -6.8960   15.1390   -1.0000 N   0  0  0  0  0  0  0  0  0  0  0  0
   -5.6910   14.5320    0.8170 C   0  0  0  0  0  0  0  0  0  0  0  0
   -4.7750   14.9020   -0.1550 C   0  0  0  0  0  0  0  0  0  0  0  0
   -5.5890   15.2680   -1.2520 C   0  0  0  0  0  0  0  0  0  0  0  0
   -3.3290   14.9160   -0.0930 C   0  0  0  0  0  0  0  0  0  0  0  0
   -2.7800   14.9030    1.1530 N   0  0  0  0  0  0  0  0  0  0  0  0
   -2.6130   14.9330   -1.0880 O   0  0  0  0  0  0  0  0  0  0  0  0
  1  2  1  0
  2  3  1  0
  1  4  2  3
  4  5  1  0
  3  6  2  0
  3  7  1  0
  5  8  1  0
  6  9  1  0
  7 10  1  0
  9 10  2  0
  8 11  1  0
  8 12  1  0
 12 13  2  0
 11 14  2  0
 13 14  1  0
 13 15  1  0
 15 16  1  0
 15 17  2  0
M  END
>  <comRMSD>  (278) 
0.381032

>  <∆∆G>  (278) 
-4.396726

>  <N_constrained_atoms>  (278) 
17.0

>  <LE>  (278) 
-0.258631

>  <ref_pdb>  (278) 
x0104_0

>  <ref_mols>  (278) 
x0104_0_A_α,x0592_0_A_α

>  <%Rank>  (278) 
4.752917

>  <generation_date>  (278) 
nan

>  <method>  (278) 
nan

>  <submitter_email>  (278) 
nan

>  <original SMILES>  (278) 
NC(=O)c1cnn(CN=CNc2cccs2)c1

>  <ref_url>  (278) 
nan

>  <submitter_name>  (278) 
nan

>  <submitter_institution>  (278) 
nan

$$$$
5CMS_0_M_γ-6WOJ_0_C_β
     RDKit          3D

 16 16  0  0  0  0  0  0  0  0999 V2000
   -1.7010   12.7420   -4.3910 O   0  0  0  0  0  0  0  0  0  0  0  0
   -0.5120   13.3800   -4.0650 C   0  0  2  0  0  0  0  0  0  0  0  0
   -0.6630   14.3630   -2.9030 C   0  0  0  0  0  0  0  0  0  0  0  0
    0.0060   14.2410   -5.1880 C   0  0  2  0  0  0  0  0  0  0  0  0
    1.3840   14.0470   -5.1880 O   0  0  0  0  0  0  0  0  0  0  0  0
   -0.0460   15.5330   -3.3630 O   0  0  0  0  0  0  0  0  0  0  0  0
   -0.4340   15.5700   -4.6860 C   0  0  1  0  0  0  0  0  0  0  0  0
   -0.0060   16.8700   -5.3820 C   0  0  0  0  0  0  0  0  0  0  0  0
   -1.3480   17.9710   -5.6870 P   0  0  0  0  0  0  0  0  0  0  0  0
   -0.5990   19.2460   -6.0880 O   0  0  0  0  0  0  0  0  0  0  0  0
   -1.8200   18.9640   -4.4150 O   0  0  0  0  0  0  0  0  0  0  0  0
   -2.2940   18.0000   -6.9850 O   0  0  0  0  0  0  0  0  0  0  0  0
    0.1140   19.6040   -7.4720 P   0  0  0  0  0  0  0  0  0  0  0  0
   -1.0570   20.4530   -7.9920 O   0  0  0  0  0  0  0  0  0  0  0  0
    1.1200   20.9540   -7.5950 O   0  0  0  0  0  0  0  0  0  0  0  0
    0.0710   18.5330   -8.7140 O   0  0  0  0  0  0  0  0  0  0  0  0
  2  1  1  6
  2  3  1  0
  2  4  1  0
  4  5  1  1
  3  6  1  0
  4  7  1  0
  6  7  1  0
  7  8  1  6
  8  9  1  0
  9 10  1  0
  9 11  1  0
  9 12  1  0
 10 13  1  0
 13 14  1  0
 13 15  1  0
 13 16  1  0
M  CHG  2  11  -1  15  -1
M  END
>  <comRMSD>  (279) 
0.491373

>  <∆∆G>  (279) 
-8.376291

>  <N_constrained_atoms>  (279) 
16.0

>  <LE>  (279) 
-0.523518

>  <ref_pdb>  (279) 
x0104_0

>  <ref_mols>  (279) 


>  <%Rank>  (279) 
4.770075

>  <generation_date>  (279) 
nan

>  <method>  (279) 
nan

>  <submitter_email>  (279) 
nan

>  <original SMILES>  (279) 
[O-][PH](O)(O)O[PH]([O-])(O)CC1OCC(O)C1O

>  <ref_url>  (279) 
nan

>  <submitter_name>  (279) 
nan

>  <submitter_institution>  (279) 
nan

$$$$
x0465_0_A_α-x0722_0_A_α
     RDKit          3D

 27 28  0  0  0  0  0  0  0  0999 V2000
    2.1560   13.0620   -5.2990 C   0  0  0  0  0  0  0  0  0  0  0  0
    0.7800   12.5100   -5.0710 C   0  0  1  0  0  0  0  0  0  0  0  0
    0.6780   11.2540   -5.7070 O   0  0  0  0  0  0  0  0  0  0  0  0
    0.6250   12.3590   -3.5900 C   0  0  0  0  0  0  0  0  0  0  0  0
    0.7610   13.2840   -2.7500 N   0  0  0  0  0  0  0  0  0  0  0  0
    0.3220   11.1400   -3.0980 O   0  0  0  0  0  0  0  0  0  0  0  0
   -0.5340   10.6430   -5.8140 C   0  0  0  0  0  0  0  0  0  0  0  0
    0.5220   12.9180   -1.4140 C   0  0  0  0  0  0  0  0  0  0  0  0
   -0.7370    9.5590   -6.6520 C   0  0  0  0  0  0  0  0  0  0  0  0
   -1.5880   11.1370   -5.0460 C   0  0  0  0  0  0  0  0  0  0  0  0
    0.2640    9.0700   -7.3960 F   0  0  0  0  0  0  0  0  0  0  0  0
   -0.9790   12.8870   -1.2950 C   0  0  0  0  0  0  0  0  0  0  0  0
   -1.9820    8.9490   -6.7400 C   0  0  0  0  0  0  0  0  0  0  0  0
   -2.8480   10.5300   -5.1290 C   0  0  0  0  0  0  0  0  0  0  0  0
   -1.6420   14.2240   -1.5750 C   0  0  0  0  0  0  0  0  0  0  0  0
   -3.0400    9.4380   -5.9750 C   0  0  0  0  0  0  0  0  0  0  0  0
   -2.2790   14.6380   -0.3140 C   0  0  0  0  0  0  0  0  0  0  0  0
   -3.5460   15.1300   -0.0290 C   0  0  0  0  0  0  0  0  0  0  0  0
   -1.6110   14.5780    0.8900 N   0  0  0  0  0  0  0  0  0  0  0  0
   -0.2670   14.1630    1.2090 C   0  0  0  0  0  0  0  0  0  0  0  0
   -4.7020   15.4200   -0.9410 C   0  0  0  0  0  0  0  0  0  0  0  0
   -2.3440   14.9740    1.8920 N   0  0  0  0  0  0  0  0  0  0  0  0
   -3.4940   15.3130    1.3670 C   0  0  0  0  0  0  0  0  0  0  0  0
   -4.4870   15.8180    2.2830 C   0  0  0  0  0  0  0  0  0  0  0  0
   -5.9720   14.6820   -0.5550 C   0  0  0  0  0  0  0  0  0  0  0  0
   -7.0980   15.1430   -0.7130 O   0  0  0  0  0  0  0  0  0  0  0  0
   -5.8050   13.4410   -0.0110 N   0  0  0  0  0  0  0  0  0  0  0  0
  2  1  1  1
  2  3  1  0
  2  4  1  0
  4  5  2  3
  4  6  1  0
  3  7  1  0
  5  8  1  0
  7  9  2  0
  7 10  1  0
  9 11  1  0
  8 12  1  0
  9 13  1  0
 10 14  2  0
 12 15  1  0
 13 16  2  0
 14 16  1  0
 15 17  1  0
 17 18  2  0
 17 19  1  0
 19 20  1  0
 18 21  1  0
 19 22  1  0
 18 23  1  0
 22 23  2  0
 23 24  1  0
 21 25  1  0
 25 26  2  0
 25 27  1  0
M  END
>  <comRMSD>  (280) 
0.341275

>  <∆∆G>  (280) 
-7.805841

>  <N_constrained_atoms>  (280) 
25.0

>  <LE>  (280) 
-0.289105

>  <ref_pdb>  (280) 
x0104_0

>  <ref_mols>  (280) 
x0465_0_A_α,x0722_0_A_α

>  <%Rank>  (280) 
4.787234

>  <generation_date>  (280) 
nan

>  <method>  (280) 
nan

>  <submitter_email>  (280) 
nan

>  <original SMILES>  (280) 
Cc1nn(C)c(CCCN=C(O)[C@@H](C)Oc2ccccc2F)c1CC(N)=O

>  <ref_url>  (280) 
nan

>  <submitter_name>  (280) 
nan

>  <submitter_institution>  (280) 
nan

$$$$
x0592_0_A_α-x1012_0_A_α
     RDKit          3D

 24 25  0  0  0  0  0  0  0  0999 V2000
   -2.8740   14.9280    1.0080 N   0  0  0  0  0  0  0  0  0  0  0  0
   -3.4240   14.6840   -0.2240 C   0  0  0  0  0  0  0  0  0  0  0  0
   -2.8920   14.3380   -1.3340 N   0  0  0  0  0  0  0  0  0  0  0  0
   -4.8560   14.8150   -0.2820 C   0  0  0  0  0  0  0  0  0  0  0  0
   -1.4730   14.1210   -1.4260 C   0  0  0  0  0  0  0  0  0  0  0  0
   -5.6910   15.2730   -1.3260 C   0  0  0  0  0  0  0  0  0  0  0  0
   -5.7390   14.4900    0.7220 C   0  0  0  0  0  0  0  0  0  0  0  0
   -6.9870   15.2350   -1.0080 N   0  0  0  0  0  0  0  0  0  0  0  0
   -6.9840   14.7540    0.2460 N   0  0  0  0  0  0  0  0  0  0  0  0
   -0.8800   14.5030   -2.7980 C   0  0  2  0  0  0  0  0  0  0  0  0
   -8.2210   14.5610    0.9660 C   0  0  0  0  0  0  0  0  0  0  0  0
   -1.7380   15.0850   -3.9040 C   0  0  0  0  0  0  0  0  0  0  0  0
    0.0080   13.4860   -3.4570 C   0  0  2  0  0  0  0  0  0  0  0  0
   -7.9580   14.1000    2.3930 C   0  0  0  0  0  0  0  0  0  0  0  0
    0.4730   12.4400   -2.4500 C   0  0  0  0  0  0  0  0  0  0  0  0
    1.0950   14.3090   -4.1450 C   0  0  0  0  0  0  0  0  0  0  0  0
   -0.8910   15.9490   -4.7310 N   0  0  0  0  0  0  0  0  0  0  0  0
   -7.1380   15.0400    3.0820 O   0  0  0  0  0  0  0  0  0  0  0  0
   -1.2150   17.2880   -4.8250 C   0  0  0  0  0  0  0  0  0  0  0  0
    0.5690   11.1910   -2.9330 O   0  0  0  0  0  0  0  0  0  0  0  0
    0.7220   12.6510   -1.2770 O   0  0  0  0  0  0  0  0  0  0  0  0
    0.5760   15.6530   -4.7440 C   0  0  0  0  0  0  0  0  0  0  0  0
   -0.2020   18.1780   -4.7930 N   0  0  0  0  0  0  0  0  0  0  0  0
   -2.3550   17.7270   -4.9070 O   0  0  0  0  0  0  0  0  0  0  0  0
  1  2  1  0
  2  3  2  3
  2  4  1  0
  3  5  1  0
  4  6  1  0
  4  7  2  0
  6  8  2  0
  7  9  1  0
  8  9  1  0
 10  5  1  1
  9 11  1  0
 10 12  1  0
 10 13  1  0
 11 14  1  0
 13 15  1  1
 13 16  1  0
 12 17  1  0
 14 18  1  0
 17 19  1  0
 15 20  1  0
 15 21  2  0
 16 22  1  0
 17 22  1  0
 19 23  1  0
 19 24  2  0
M  END
>  <comRMSD>  (281) 
0.447934

>  <∆∆G>  (281) 
-9.137632

>  <N_constrained_atoms>  (281) 
23.0

>  <LE>  (281) 
-0.380735

>  <ref_pdb>  (281) 
x0104_0

>  <ref_mols>  (281) 
x0592_0_A_α,x1012_0_A_α

>  <%Rank>  (281) 
4.804393

>  <generation_date>  (281) 
nan

>  <method>  (281) 
nan

>  <submitter_email>  (281) 
nan

>  <original SMILES>  (281) 
NC(=O)N1CCC(C(=O)O)C(CN=C(N)c2cnn(CCO)c2)C1

>  <ref_url>  (281) 
nan

>  <submitter_name>  (281) 
nan

>  <submitter_institution>  (281) 
nan

$$$$
x0797_0_B_α-x0918_1_B_α
     RDKit          3D

 22 24  0  0  0  0  0  0  0  0999 V2000
   -8.0170   29.9690  -14.8390 C   0  0  0  0  0  0  0  0  0  0  0  0
   -6.8110   29.6050  -14.0190 C   0  0  0  0  0  0  0  0  0  0  0  0
   -5.5650   30.1410  -14.4070 C   0  0  0  0  0  0  0  0  0  0  0  0
   -6.8880   28.7530  -12.8950 C   0  0  0  0  0  0  0  0  0  0  0  0
   -5.6930   28.4830  -12.1890 C   0  0  0  0  0  0  0  0  0  0  0  0
   -4.4050   29.8500  -13.6980 C   0  0  0  0  0  0  0  0  0  0  0  0
   -8.2210   28.1290  -12.4430 C   0  0  1  0  0  0  0  0  0  0  0  0
   -4.4700   29.0240  -12.5880 C   0  0  0  0  0  0  0  0  0  0  0  0
   -8.3860   26.6380  -12.8010 C   0  0  1  0  0  0  0  0  0  0  0  0
   -8.3250   28.1360  -10.9400 C   0  0  0  0  0  0  0  0  0  0  0  0
   -7.2610   26.2740  -13.6990 C   0  0  0  0  0  0  0  0  0  0  0  0
   -8.0180   26.8230  -10.4590 O   0  0  0  0  0  0  0  0  0  0  0  0
   -8.4260   25.8980  -11.4740 C   0  0  0  0  0  0  0  0  0  0  0  0
   -7.5300   26.0760  -15.0000 O   0  0  0  0  0  0  0  0  0  0  0  0
   -6.1470   26.2660  -13.0760 N   0  0  0  0  0  0  0  0  0  0  0  0
   -4.8220   26.1180  -13.4340 C   0  0  0  0  0  0  0  0  0  0  0  0
   -3.9650   25.7410  -12.4170 C   0  0  0  0  0  0  0  0  0  0  0  0
   -4.4240   26.3810  -14.6970 N   0  0  0  0  0  0  0  0  0  0  0  0
   -2.6150   25.6420  -12.6800 C   0  0  0  0  0  0  0  0  0  0  0  0
   -3.1040   26.2820  -14.9290 C   0  0  0  0  0  0  0  0  0  0  0  0
   -1.7120   25.2720  -11.6860 N   0  0  0  0  0  0  0  0  0  0  0  0
   -2.1770   25.9310  -13.9680 C   0  0  0  0  0  0  0  0  0  0  0  0
  1  2  1  0
  2  3  2  0
  2  4  1  0
  4  5  2  0
  3  6  1  0
  7  4  1  1
  5  8  1  0
  6  8  2  0
  7  9  1  0
  7 10  1  0
  9 11  1  6
 10 12  1  0
  9 13  1  0
 12 13  1  0
 11 14  1  0
 11 15  2  3
 15 16  1  0
 16 17  2  0
 16 18  1  0
 17 19  1  0
 18 20  2  0
 19 21  1  0
 19 22  2  0
 20 22  1  0
M  END
>  <comRMSD>  (282) 
0.425479

>  <∆∆G>  (282) 
-3.306752

>  <N_constrained_atoms>  (282) 
22.0

>  <LE>  (282) 
-0.150307

>  <ref_pdb>  (282) 
x0104_0

>  <ref_mols>  (282) 
x0797_0_B_α,x0918_1_B_α

>  <%Rank>  (282) 
4.821551

>  <generation_date>  (282) 
nan

>  <method>  (282) 
nan

>  <submitter_email>  (282) 
nan

>  <original SMILES>  (282) 
Cc1ccccc1C1COCC1C(O)=Nc1cc(N)ccn1

>  <ref_url>  (282) 
nan

>  <submitter_name>  (282) 
nan

>  <submitter_institution>  (282) 
nan

$$$$
x0681_0_A_α-x1015_0_A_α
     RDKit          3D

 26 29  0  0  0  0  0  0  0  0999 V2000
   -4.2930   15.3370   -2.4590 N   0  0  0  0  0  0  0  0  0  0  0  0
   -3.1540   14.5920   -2.2060 C   0  0  0  0  0  0  0  0  0  0  0  0
   -2.2200   14.4440   -3.1730 N   0  0  0  0  0  0  0  0  0  0  0  0
   -3.1590   14.0150   -0.7420 C   0  0  2  0  0  0  0  0  0  0  0  0
   -4.4150   13.1640   -0.5900 C   0  0  0  0  0  0  0  0  0  0  0  0
   -3.1420   15.1370    0.3410 C   0  0  0  0  0  0  0  0  0  0  0  0
   -0.8670   13.7860   -3.3890 C   0  0  2  0  0  0  0  0  0  0  0  0
   -5.3570   13.3570    0.3960 N   0  0  0  0  0  0  0  0  0  0  0  0
   -3.8410   14.7650    1.6530 C   0  0  0  0  0  0  0  0  0  0  0  0
   -4.7870   12.1540   -1.3520 N   0  0  0  0  0  0  0  0  0  0  0  0
   -0.7650   12.3140   -3.5010 N   0  0  0  0  0  0  0  0  0  0  0  0
    0.1110   14.0570   -2.2460 C   0  0  0  0  0  0  0  0  0  0  0  0
    0.3840   15.1530   -1.7780 O   0  0  0  0  0  0  0  0  0  0  0  0
   -5.2840   14.3740    1.4020 C   0  0  0  0  0  0  0  0  0  0  0  0
   -6.3480   12.4380    0.2540 C   0  0  0  0  0  0  0  0  0  0  0  0
   -5.9780   11.7000   -0.8380 C   0  0  0  0  0  0  0  0  0  0  0  0
    0.0600   11.8330   -2.4720 C   0  0  0  0  0  0  0  0  0  0  0  0
    0.6450   12.8860   -1.8400 N   0  0  0  0  0  0  0  0  0  0  0  0
   -0.9120   11.5720   -4.7290 C   0  0  0  0  0  0  0  0  0  0  0  0
    0.2820   10.6680   -2.1300 O   0  0  0  0  0  0  0  0  0  0  0  0
   -0.2080   11.8820   -5.9230 C   0  0  0  0  0  0  0  0  0  0  0  0
   -1.7780   10.4730   -4.7770 C   0  0  0  0  0  0  0  0  0  0  0  0
   -0.3830   11.1160   -7.0950 C   0  0  0  0  0  0  0  0  0  0  0  0
   -1.9530    9.7110   -5.9380 C   0  0  0  0  0  0  0  0  0  0  0  0
   -1.2580   10.0330   -7.0930 C   0  0  0  0  0  0  0  0  0  0  0  0
   -1.4930    9.0830   -8.5090 Cl  0  0  0  0  0  0  0  0  0  0  0  0
  1  2  1  0
  2  3  2  3
  4  2  1  6
  4  5  1  0
  4  6  1  0
  7  3  1  1
  5  8  1  0
  6  9  1  0
  5 10  2  0
  7 11  1  0
  7 12  1  0
 12 13  2  0
  8 14  1  0
  9 14  1  0
  8 15  1  0
 10 16  1  0
 15 16  2  0
 11 17  1  0
 12 18  1  0
 17 18  1  0
 11 19  1  0
 17 20  2  0
 19 21  2  0
 19 22  1  0
 21 23  1  0
 22 24  2  0
 23 25  2  0
 24 25  1  0
 25 26  1  0
M  END
>  <comRMSD>  (283) 
0.545504

>  <∆∆G>  (283) 
-6.906372

>  <N_constrained_atoms>  (283) 
26.0

>  <LE>  (283) 
-0.26563

>  <ref_pdb>  (283) 
x0104_0

>  <ref_mols>  (283) 
x0681_0_A_α,x1015_0_A_α

>  <%Rank>  (283) 
4.83871

>  <generation_date>  (283) 
nan

>  <method>  (283) 
nan

>  <submitter_email>  (283) 
nan

>  <original SMILES>  (283) 
NC(=NC1C(=O)NC(=O)N1c1ccc(Cl)cc1)C1CCCn2ccnc21

>  <ref_url>  (283) 
nan

>  <submitter_name>  (283) 
nan

>  <submitter_institution>  (283) 
nan

$$$$
EU0960_0_A_α-5cb5_C_0_C_β
     RDKit          3D

 31 32  0  0  0  0  0  0  0  0999 V2000
   -2.2730   10.1460   -4.9360 C   0  0  0  0  0  0  0  0  0  0  0  0
   -1.1040   10.4250   -5.8250 C   0  0  0  0  0  0  0  0  0  0  0  0
   -0.7840    9.5490   -6.8900 N   0  0  0  0  0  0  0  0  0  0  0  0
   -0.2350   11.4560   -5.7640 C   0  0  0  0  0  0  0  0  0  0  0  0
   -1.8720    8.9050   -7.6550 C   0  0  0  0  0  0  0  0  0  0  0  0
   -0.2650   12.5280   -4.7990 N   0  0  0  0  0  0  0  0  0  0  0  0
    0.7290   11.2590   -6.8750 C   0  0  0  0  0  0  0  0  0  0  0  0
    0.1580   10.2720   -7.6980 N   0  0  0  0  0  0  0  0  0  0  0  0
    1.7710   11.8620   -6.9600 O   0  0  0  0  0  0  0  0  0  0  0  0
    0.7220   12.2070   -3.4030 S   0  0  0  0  0  0  0  0  0  0  0  0
    0.0590   13.8970   -5.3680 C   0  0  0  0  0  0  0  0  0  0  0  0
    0.8580    9.6160   -8.7470 C   0  0  0  0  0  0  0  0  0  0  0  0
    0.6830   10.7780   -3.1540 O   0  0  0  0  0  0  0  0  0  0  0  0
    0.3480   13.1050   -2.3390 O   0  0  0  0  0  0  0  0  0  0  0  0
    2.3640   12.6870   -3.9490 C   0  0  0  0  0  0  0  0  0  0  0  0
    0.0080   15.0400   -4.3360 C   0  0  0  0  0  0  0  0  0  0  0  0
    1.2840   10.3150   -9.8850 C   0  0  0  0  0  0  0  0  0  0  0  0
    1.1480    8.2480   -8.6750 C   0  0  0  0  0  0  0  0  0  0  0  0
    0.0300   16.4300   -4.9950 C   0  0  0  0  0  0  0  0  0  0  0  0
    1.9760    9.6680  -10.9140 C   0  0  0  0  0  0  0  0  0  0  0  0
    1.8430    7.6010   -9.7030 C   0  0  0  0  0  0  0  0  0  0  0  0
   -1.2990   16.7660   -5.4010 O   0  0  0  0  0  0  0  0  0  0  0  0
    2.2570    8.3130  -10.8230 C   0  0  0  0  0  0  0  0  0  0  0  0
   -1.6380   18.2180   -6.0190 P   0  0  1  0  0  0  0  0  0  0  0  0
   -0.2570   18.8610   -6.4350 O   0  0  0  0  0  0  0  0  0  0  0  0
   -2.6630   18.1770   -7.0760 O   0  0  0  0  0  0  0  0  0  0  0  0
   -2.0440   19.1050   -4.7610 O   0  0  0  0  0  0  0  0  0  0  0  0
   -0.1170   19.7670   -7.7170 P   0  0  0  0  0  0  0  0  0  0  0  0
   -1.5380   20.3300   -8.1550 O   0  0  0  0  0  0  0  0  0  0  0  0
    0.9970   20.7640   -7.6450 O   0  0  0  0  0  0  0  0  0  0  0  0
    0.1190   18.6890   -8.8690 O   0  0  0  0  0  0  0  0  0  0  0  0
  1  2  1  0
  2  3  1  0
  2  4  2  0
  3  5  1  0
  4  6  1  0
  4  7  1  0
  3  8  1  0
  7  8  1  0
  7  9  2  0
 10  6  1  0
  6 11  1  0
  8 12  1  0
 10 13  2  0
 10 14  2  0
 10 15  1  0
 11 16  1  0
 12 17  2  0
 12 18  1  0
 16 19  1  0
 17 20  1  0
 18 21  2  0
 19 22  1  0
 20 23  2  0
 21 23  1  0
 22 24  1  0
 24 25  1  0
 24 26  2  0
 24 27  1  1
 25 28  1  0
 28 29  1  0
 28 30  2  0
 28 31  1  0
M  END
>  <comRMSD>  (284) 
0.422245

>  <∆∆G>  (284) 
-15.500384

>  <N_constrained_atoms>  (284) 
28.0

>  <LE>  (284) 
-0.500012

>  <ref_pdb>  (284) 
x0104_0

>  <ref_mols>  (284) 


>  <%Rank>  (284) 
4.855868

>  <generation_date>  (284) 
nan

>  <method>  (284) 
nan

>  <submitter_email>  (284) 
nan

>  <original SMILES>  (284) 
Cc1c(N(CCCOP(=O)(O)OP(=O)(O)O)S(C)(=O)=O)c(=O)n(-c2ccccc2)n1C

>  <ref_url>  (284) 
nan

>  <submitter_name>  (284) 
nan

>  <submitter_institution>  (284) 
nan

$$$$
x0290_0_A_α-x0689_0_A_α
     RDKit          3D

 13 13  0  0  0  0  0  0  0  0999 V2000
   -7.7440   13.8130    0.9460 N   0  0  0  0  0  0  0  0  0  0  0  0
   -8.5980   14.9640    0.6810 C   0  0  0  0  0  0  0  0  0  0  0  0
   -6.5480   14.1630    1.7420 C   0  0  0  0  0  0  0  0  0  0  0  0
   -5.3310   14.4590    0.8570 C   0  0  0  0  0  0  0  0  0  0  0  0
   -5.4450   14.4960   -0.3740 O   0  0  0  0  0  0  0  0  0  0  0  0
   -4.1000   14.6720    1.3880 N   0  0  0  0  0  0  0  0  0  0  0  0
   -2.8250   14.6390    0.8290 C   0  0  0  0  0  0  0  0  0  0  0  0
   -1.8100   14.5710    1.7280 N   0  0  0  0  0  0  0  0  0  0  0  0
   -2.5930   14.6650   -0.5300 C   0  0  0  0  0  0  0  0  0  0  0  0
   -0.5480   14.5290    1.2470 C   0  0  0  0  0  0  0  0  0  0  0  0
   -1.2810   14.6220   -1.0100 C   0  0  0  0  0  0  0  0  0  0  0  0
   -1.0200   14.6460   -2.4870 C   0  0  0  0  0  0  0  0  0  0  0  0
   -0.2320   14.5530   -0.0950 C   0  0  0  0  0  0  0  0  0  0  0  0
  1  2  1  0
  1  3  1  0
  3  4  1  0
  4  5  2  0
  4  6  1  0
  6  7  1  0
  7  8  2  0
  7  9  1  0
  8 10  1  0
  9 11  2  0
 11 12  1  0
 10 13  2  0
 11 13  1  0
M  END
>  <comRMSD>  (285) 
0.408815

>  <∆∆G>  (285) 
-6.544074

>  <N_constrained_atoms>  (285) 
13.0

>  <LE>  (285) 
-0.50339

>  <ref_pdb>  (285) 
x0104_0

>  <ref_mols>  (285) 
x0290_0_A_α,x0689_0_A_α

>  <%Rank>  (285) 
4.873027

>  <generation_date>  (285) 
nan

>  <method>  (285) 
nan

>  <submitter_email>  (285) 
nan

>  <original SMILES>  (285) 
CNCC(=O)Nc1cc(C)ccn1

>  <ref_url>  (285) 
nan

>  <submitter_name>  (285) 
nan

>  <submitter_institution>  (285) 
nan

$$$$
x0685_0_A_α-6WOJ_0_C_γ
     RDKit          3D

 20 21  0  0  0  0  0  0  0  0999 V2000
   -6.1420   14.6210    2.6560 N   0  0  0  0  0  0  0  0  0  0  0  0
   -7.5820   14.8100    2.7410 C   0  0  0  0  0  0  0  0  0  0  0  0
   -8.2160   13.4730    3.0770 C   0  0  0  0  0  0  0  0  0  0  0  0
   -5.4890   14.7960    1.4520 C   0  0  0  0  0  0  0  0  0  0  0  0
   -4.1120   14.9500    1.3910 C   0  0  0  0  0  0  0  0  0  0  0  0
   -6.2740   14.8000    0.3550 N   0  0  0  0  0  0  0  0  0  0  0  0
   -3.5120   15.1100    0.1630 C   0  0  0  0  0  0  0  0  0  0  0  0
   -5.6600   14.9610   -0.8400 C   0  0  0  0  0  0  0  0  0  0  0  0
   -4.2970   15.1140   -0.9730 C   0  0  0  0  0  0  0  0  0  0  0  0
   -3.6540   15.2680   -2.2170 C   0  0  0  0  0  0  0  0  0  0  0  0
   -2.9590   15.3280   -3.1670 C   0  0  0  0  0  0  0  0  0  0  0  0
   -1.9050   15.3210   -4.1610 C   0  0  0  0  0  0  0  0  0  0  0  0
   -0.7210   14.6480   -3.4710 C   0  0  2  0  0  0  0  0  0  0  0  0
    0.3610   15.5750   -3.2370 O   0  0  0  0  0  0  0  0  0  0  0  0
   -0.1000   13.4990   -4.2330 C   0  0  1  0  0  0  0  0  0  0  0  0
   -1.0580   12.7650   -4.9960 O   0  0  0  0  0  0  0  0  0  0  0  0
    1.1870   15.5410   -4.4170 C   0  0  1  0  0  0  0  0  0  0  0  0
    0.8720   14.2180   -5.1540 C   0  0  1  0  0  0  0  0  0  0  0  0
    0.8610   16.7990   -5.2180 C   0  0  0  0  0  0  0  0  0  0  0  0
    2.0410   13.4060   -5.2430 O   0  0  0  0  0  0  0  0  0  0  0  0
  1  2  1  0
  2  3  1  0
  1  4  1  0
  4  5  2  0
  4  6  1  0
  5  7  1  0
  6  8  2  0
  7  9  2  0
  8  9  1  0
  9 10  1  0
 10 11  3  0
 11 12  1  0
 13 12  1  6
 13 14  1  0
 13 15  1  0
 15 16  1  6
 14 17  1  0
 15 18  1  0
 17 18  1  0
 17 19  1  6
 18 20  1  1
M  END
>  <comRMSD>  (286) 
0.345755

>  <∆∆G>  (286) 
-7.201584

>  <N_constrained_atoms>  (286) 
19.0

>  <LE>  (286) 
-0.360079

>  <ref_pdb>  (286) 
x0104_0

>  <ref_mols>  (286) 
x0685_0_A_α

>  <%Rank>  (286) 
4.890185

>  <generation_date>  (286) 
nan

>  <method>  (286) 
nan

>  <submitter_email>  (286) 
nan

>  <original SMILES>  (286) 
CCNc1ccc(C#CCC2OC(C)C(O)C2O)cn1

>  <ref_url>  (286) 
nan

>  <submitter_name>  (286) 
nan

>  <submitter_institution>  (286) 
nan

$$$$
x0628_0_A_α-x0689_0_A_α
     RDKit          3D

 21 22  0  0  0  0  0  0  0  0999 V2000
   -0.8580    8.9910   -7.2970 C   0  0  0  0  0  0  0  0  0  0  0  0
   -0.8240   10.2000   -6.4550 C   0  0  0  0  0  0  0  0  0  0  0  0
   -1.8120   10.5050   -5.5580 N   0  0  0  0  0  0  0  0  0  0  0  0
    0.1750   11.0830   -6.5060 N   0  0  0  0  0  0  0  0  0  0  0  0
   -0.2020   11.9890   -5.5890 N   0  0  0  0  0  0  0  0  0  0  0  0
   -1.4040   11.6380   -5.0180 C   0  0  0  0  0  0  0  0  0  0  0  0
   -2.1120   12.4120   -3.9720 C   0  0  0  0  0  0  0  0  0  0  0  0
    0.6570   13.1410   -5.3460 C   0  0  0  0  0  0  0  0  0  0  0  0
    1.6640   12.9350   -4.2150 C   0  0  0  0  0  0  0  0  0  0  0  0
    0.9390   12.4280   -2.9990 C   0  0  0  0  0  0  0  0  0  0  0  0
    0.9070   11.2610   -2.6300 O   0  0  0  0  0  0  0  0  0  0  0  0
    0.3000   13.4500   -2.3980 O   0  0  0  0  0  0  0  0  0  0  0  0
    0.8650   14.1080   -1.2590 C   0  0  0  0  0  0  0  0  0  0  0  0
   -0.3110   14.3600   -0.3880 C   0  0  0  0  0  0  0  0  0  0  0  0
   -1.5100   14.6170   -0.9790 C   0  0  0  0  0  0  0  0  0  0  0  0
   -0.3460   14.3640    0.9980 C   0  0  0  0  0  0  0  0  0  0  0  0
   -2.6340   14.8620   -0.3080 N   0  0  0  0  0  0  0  0  0  0  0  0
   -1.4540   14.6030    1.7210 N   0  0  0  0  0  0  0  0  0  0  0  0
   -2.5630   14.8530    1.0220 C   0  0  0  0  0  0  0  0  0  0  0  0
   -3.7040   15.1280    1.7350 N   0  0  0  0  0  0  0  0  0  0  0  0
   -4.8590   15.2540    0.8900 C   0  0  0  0  0  0  0  0  0  0  0  0
  1  2  1  0
  2  3  1  0
  2  4  2  0
  4  5  1  0
  3  6  2  0
  5  6  1  0
  6  7  1  0
  5  8  1  0
  8  9  1  0
  9 10  1  0
 10 11  2  0
 10 12  1  0
 12 13  1  0
 13 14  1  0
 14 15  2  0
 14 16  1  0
 15 17  1  0
 16 18  2  0
 17 19  2  0
 18 19  1  0
 19 20  1  0
 20 21  1  0
M  END
>  <comRMSD>  (287) 
0.38306

>  <∆∆G>  (287) 
-8.039797

>  <N_constrained_atoms>  (287) 
20.0

>  <LE>  (287) 
-0.382847

>  <ref_pdb>  (287) 
x0104_0

>  <ref_mols>  (287) 
x0628_0_A_α,x0689_0_A_α

>  <%Rank>  (287) 
4.907344

>  <generation_date>  (287) 
nan

>  <method>  (287) 
nan

>  <submitter_email>  (287) 
nan

>  <original SMILES>  (287) 
CNc1ncc(COC(=O)CCn2nc(C)nc2C)cn1

>  <ref_url>  (287) 
nan

>  <submitter_name>  (287) 
nan

>  <submitter_institution>  (287) 
nan

$$$$
5dus_0_A_β-4IQY_0_A_γ
     RDKit          3D

 16 16  0  0  0  0  0  0  0  0999 V2000
   -1.7660   20.4110   -8.0080 O   0  0  0  0  0  0  0  0  0  0  0  0
   -0.3210   19.8520   -7.6540 P   0  0  0  0  0  0  0  0  0  0  0  0
   -0.4580   19.2080   -6.2210 O   0  0  0  0  0  0  0  0  0  0  0  0
    0.7450   20.8720   -7.7540 O   0  0  0  0  0  0  0  0  0  0  0  0
   -0.1450   18.6470   -8.6880 O   0  0  0  0  0  0  0  0  0  0  0  0
   -1.3840   18.0070   -5.7860 P   0  0  2  0  0  0  0  0  0  0  0  0
   -0.3090   16.9010   -5.3130 O   0  0  0  0  0  0  0  0  0  0  0  0
   -2.4980   17.6110   -6.7010 O   0  0  0  0  0  0  0  0  0  0  0  0
   -1.9100   18.6700   -4.4290 O   0  0  0  0  0  0  0  0  0  0  0  0
   -0.6960   15.8030   -4.5160 C   0  0  2  0  0  0  0  0  0  0  0  0
   -0.2040   15.8600   -3.1740 O   0  0  0  0  0  0  0  0  0  0  0  0
   -0.2090   14.4140   -4.9350 C   0  0  1  0  0  0  0  0  0  0  0  0
    1.1990   14.1570   -4.7590 O   0  0  0  0  0  0  0  0  0  0  0  0
   -0.4970   14.5620   -2.6290 C   0  0  0  0  0  0  0  0  0  0  0  0
   -0.9180   13.6910   -3.8180 C   0  0  2  0  0  0  0  0  0  0  0  0
   -0.5020   12.3460   -3.7280 O   0  0  0  0  0  0  0  0  0  0  0  0
  1  2  1  0
  2  3  1  0
  2  4  2  0
  2  5  1  0
  3  6  1  0
  6  7  1  0
  6  8  2  0
  6  9  1  1
 10  7  1  6
 10 11  1  0
 10 12  1  0
 12 13  1  1
 11 14  1  0
 12 15  1  0
 14 15  1  0
 15 16  1  1
M  END
>  <comRMSD>  (288) 
0.549413

>  <∆∆G>  (288) 
-10.101507

>  <N_constrained_atoms>  (288) 
16.0

>  <LE>  (288) 
-0.631344

>  <ref_pdb>  (288) 
x0104_0

>  <ref_mols>  (288) 


>  <%Rank>  (288) 
4.924502

>  <generation_date>  (288) 
nan

>  <method>  (288) 
nan

>  <submitter_email>  (288) 
nan

>  <original SMILES>  (288) 
O=P(O)(O)OP(=O)(O)OC1OCC(O)C1O

>  <ref_url>  (288) 
nan

>  <submitter_name>  (288) 
nan

>  <submitter_institution>  (288) 
nan

$$$$
5cb3_0_A_γ-6WOJ_0_A_β
     RDKit          3D

 16 16  0  0  0  0  0  0  0  0999 V2000
   -1.7270   12.9020   -4.1060 O   0  0  0  0  0  0  0  0  0  0  0  0
   -0.5080   13.5190   -3.8500 C   0  0  2  0  0  0  0  0  0  0  0  0
   -0.5860   14.5460   -2.7230 C   0  0  0  0  0  0  0  0  0  0  0  0
   -0.0200   14.3180   -5.0310 C   0  0  2  0  0  0  0  0  0  0  0  0
    1.3590   14.1210   -5.0740 O   0  0  0  0  0  0  0  0  0  0  0  0
    0.0120   15.6920   -3.2590 O   0  0  0  0  0  0  0  0  0  0  0  0
   -0.4230   15.6680   -4.5670 C   0  0  1  0  0  0  0  0  0  0  0  0
    0.0100   16.9060   -5.3500 C   0  0  0  0  0  0  0  0  0  0  0  0
   -1.3170   17.9990   -5.6990 P   0  0  0  0  0  0  0  0  0  0  0  0
   -0.4950   19.2310   -6.0750 O   0  0  0  0  0  0  0  0  0  0  0  0
   -1.8290   19.0200   -4.4600 O   0  0  0  0  0  0  0  0  0  0  0  0
   -2.2150   18.0430   -7.0320 O   0  0  0  0  0  0  0  0  0  0  0  0
    0.0530   19.6600   -7.5090 P   0  0  0  0  0  0  0  0  0  0  0  0
   -1.2670   20.3160   -7.9390 O   0  0  0  0  0  0  0  0  0  0  0  0
    0.8080   21.1470   -7.7220 O   0  0  0  0  0  0  0  0  0  0  0  0
    0.0810   18.5690   -8.7370 O   0  0  0  0  0  0  0  0  0  0  0  0
  2  1  1  6
  2  3  1  0
  2  4  1  0
  4  5  1  1
  3  6  1  0
  4  7  1  0
  6  7  1  0
  7  8  1  6
  8  9  1  0
  9 10  1  0
  9 11  1  0
  9 12  1  0
 10 13  1  0
 13 14  1  0
 13 15  1  0
 13 16  1  0
M  CHG  2  11  -1  15  -1
M  END
>  <comRMSD>  (289) 
0.496554

>  <∆∆G>  (289) 
-8.407507

>  <N_constrained_atoms>  (289) 
16.0

>  <LE>  (289) 
-0.525469

>  <ref_pdb>  (289) 
x0104_0

>  <ref_mols>  (289) 


>  <%Rank>  (289) 
4.941661

>  <generation_date>  (289) 
nan

>  <method>  (289) 
nan

>  <submitter_email>  (289) 
nan

>  <original SMILES>  (289) 
[O-][PH](O)(O)O[PH]([O-])(O)CC1OCC(O)C1O

>  <ref_url>  (289) 
nan

>  <submitter_name>  (289) 
nan

>  <submitter_institution>  (289) 
nan

$$$$
x0574_0_A_α-x0685_0_A_α
     RDKit          3D

 15 16  0  0  0  0  0  0  0  0999 V2000
    0.1360   14.0740    2.0930 N   0  0  0  0  0  0  0  0  0  0  0  0
   -0.9520   14.3100    1.3870 C   0  0  0  0  0  0  0  0  0  0  0  0
   -2.0800   14.3320    1.9800 N   0  0  0  0  0  0  0  0  0  0  0  0
   -0.9900   14.5910   -0.3010 S   0  0  0  0  0  0  0  0  0  0  0  0
   -3.0940   14.5530    1.1050 C   0  0  0  0  0  0  0  0  0  0  0  0
   -2.7210   14.7260   -0.2180 C   0  0  0  0  0  0  0  0  0  0  0  0
   -4.4350   14.6040    1.4710 C   0  0  0  0  0  0  0  0  0  0  0  0
   -3.7170   14.9590   -1.1850 C   0  0  0  0  0  0  0  0  0  0  0  0
   -3.3560   15.1380   -2.5460 C   0  0  0  0  0  0  0  0  0  0  0  0
   -5.4230   14.8200    0.5440 C   0  0  0  0  0  0  0  0  0  0  0  0
   -5.0620   15.0020   -0.7880 C   0  0  0  0  0  0  0  0  0  0  0  0
   -6.7600   14.8670    0.8380 O   0  0  0  0  0  0  0  0  0  0  0  0
   -3.0630   15.2690   -3.6570 N   0  0  0  0  0  0  0  0  0  0  0  0
   -7.1650   14.7260    2.2170 C   0  0  0  0  0  0  0  0  0  0  0  0
   -7.6780   13.3300    2.5260 C   0  0  0  0  0  0  0  0  0  0  0  0
  1  2  1  0
  2  3  2  0
  2  4  1  0
  3  5  1  0
  4  6  1  0
  5  6  2  0
  5  7  1  0
  6  8  1  0
  8  9  1  0
  7 10  2  0
  8 11  2  0
 10 11  1  0
 10 12  1  0
  9 13  3  0
 12 14  1  0
 14 15  1  0
M  END
>  <comRMSD>  (290) 
0.501075

>  <∆∆G>  (290) 
-8.723314

>  <N_constrained_atoms>  (290) 
15.0

>  <LE>  (290) 
-0.581554

>  <ref_pdb>  (290) 
x0104_0

>  <ref_mols>  (290) 
x0574_0_A_α,x0685_0_A_α

>  <%Rank>  (290) 
4.958819

>  <generation_date>  (290) 
nan

>  <method>  (290) 
nan

>  <submitter_email>  (290) 
nan

>  <original SMILES>  (290) 
CCOc1cc(C#N)c2sc(N)nc2c1

>  <ref_url>  (290) 
nan

>  <submitter_name>  (290) 
nan

>  <submitter_institution>  (290) 
nan

$$$$
5l9k_A_0_A_γ-6WOJ_0_C_β
     RDKit          3D

 16 16  0  0  0  0  0  0  0  0999 V2000
   -2.7250   13.0540   -4.0910 O   0  0  0  0  0  0  0  0  0  0  0  0
   -1.4500   13.5320   -3.8040 C   0  0  2  0  0  0  0  0  0  0  0  0
   -1.4440   14.5900   -2.7090 C   0  0  0  0  0  0  0  0  0  0  0  0
   -0.8200   14.2420   -4.9800 C   0  0  2  0  0  0  0  0  0  0  0  0
    0.5190   13.8520   -4.9870 O   0  0  0  0  0  0  0  0  0  0  0  0
   -0.6180   15.5930   -3.2280 O   0  0  0  0  0  0  0  0  0  0  0  0
   -1.0230   15.6430   -4.5450 C   0  0  1  0  0  0  0  0  0  0  0  0
   -0.3590   16.7940   -5.3110 C   0  0  0  0  0  0  0  0  0  0  0  0
   -1.4880   18.0560   -5.7320 P   0  0  0  0  0  0  0  0  0  0  0  0
   -0.5180   19.2010   -6.0500 O   0  0  0  0  0  0  0  0  0  0  0  0
   -1.9450   19.1070   -4.5020 O   0  0  0  0  0  0  0  0  0  0  0  0
   -2.2740   18.1980   -7.1200 O   0  0  0  0  0  0  0  0  0  0  0  0
    0.1230   19.5980   -7.4590 P   0  0  0  0  0  0  0  0  0  0  0  0
   -1.0770   20.4330   -7.9300 O   0  0  0  0  0  0  0  0  0  0  0  0
    1.1040   20.9610   -7.6050 O   0  0  0  0  0  0  0  0  0  0  0  0
    0.0470   18.5360   -8.7100 O   0  0  0  0  0  0  0  0  0  0  0  0
  2  1  1  6
  2  3  1  0
  2  4  1  0
  4  5  1  1
  3  6  1  0
  4  7  1  0
  6  7  1  0
  7  8  1  6
  8  9  1  0
  9 10  1  0
  9 11  1  0
  9 12  1  0
 10 13  1  0
 13 14  1  0
 13 15  1  0
 13 16  1  0
M  CHG  2  11  -1  15  -1
M  END
>  <comRMSD>  (291) 
0.485101

>  <∆∆G>  (291) 
-8.027206

>  <N_constrained_atoms>  (291) 
16.0

>  <LE>  (291) 
-0.5017

>  <ref_pdb>  (291) 
x0104_0

>  <ref_mols>  (291) 


>  <%Rank>  (291) 
4.975978

>  <generation_date>  (291) 
nan

>  <method>  (291) 
nan

>  <submitter_email>  (291) 
nan

>  <original SMILES>  (291) 
[O-][PH](O)(O)O[PH]([O-])(O)CC1OCC(O)C1O

>  <ref_url>  (291) 
nan

>  <submitter_name>  (291) 
nan

>  <submitter_institution>  (291) 
nan

$$$$
x0905_0_A_α-x1015_0_A_α
     RDKit          3D

 24 26  0  0  0  0  0  0  0  0999 V2000
   -7.1740   15.0220   -0.6270 O   0  0  0  0  0  0  0  0  0  0  0  0
   -5.8300   15.1550   -0.5400 C   0  0  0  0  0  0  0  0  0  0  0  0
   -5.3450   15.1130    0.7100 N   0  0  0  0  0  0  0  0  0  0  0  0
   -5.0950   15.3160   -1.6780 C   0  0  0  0  0  0  0  0  0  0  0  0
   -4.0020   15.2490    0.8180 C   0  0  0  0  0  0  0  0  0  0  0  0
   -3.7190   15.4520   -1.5540 C   0  0  0  0  0  0  0  0  0  0  0  0
   -2.8960   15.6230   -2.7950 C   0  0  0  0  0  0  0  0  0  0  0  0
   -3.1560   15.4190   -0.2690 C   0  0  0  0  0  0  0  0  0  0  0  0
   -1.5490   14.9360   -2.7310 C   0  0  0  0  0  0  0  0  0  0  0  0
   -1.0880   14.4530   -4.0990 C   0  0  0  0  0  0  0  0  0  0  0  0
    0.1870   13.6120   -4.0140 C   0  0  2  0  0  0  0  0  0  0  0  0
   -0.0560   12.1750   -3.9560 N   0  0  0  0  0  0  0  0  0  0  0  0
    0.7070   13.8350   -2.5950 C   0  0  0  0  0  0  0  0  0  0  0  0
    0.9010   14.9120   -2.0540 O   0  0  0  0  0  0  0  0  0  0  0  0
    0.3440   11.6430   -2.7190 C   0  0  0  0  0  0  0  0  0  0  0  0
    0.9300   12.6380   -2.0080 N   0  0  0  0  0  0  0  0  0  0  0  0
   -0.4680   11.3960   -5.0620 C   0  0  0  0  0  0  0  0  0  0  0  0
    0.2250   10.4950   -2.2930 O   0  0  0  0  0  0  0  0  0  0  0  0
    0.0820   11.5970   -6.3390 C   0  0  0  0  0  0  0  0  0  0  0  0
   -1.4390   10.3970   -4.9140 C   0  0  0  0  0  0  0  0  0  0  0  0
   -0.3270   10.8220   -7.4280 C   0  0  0  0  0  0  0  0  0  0  0  0
   -1.8510    9.6190   -6.0000 C   0  0  0  0  0  0  0  0  0  0  0  0
   -1.2930    9.8350   -7.2530 C   0  0  0  0  0  0  0  0  0  0  0  0
   -1.7980    8.8790   -8.5880 Cl  0  0  0  0  0  0  0  0  0  0  0  0
  1  2  1  0
  2  3  2  0
  2  4  1  0
  3  5  1  0
  4  6  2  0
  6  7  1  0
  5  8  2  0
  6  8  1  0
  7  9  1  0
  9 10  1  0
 11 10  1  1
 11 12  1  0
 11 13  1  0
 13 14  2  0
 12 15  1  0
 13 16  1  0
 15 16  1  0
 12 17  1  0
 15 18  2  0
 17 19  2  0
 17 20  1  0
 19 21  1  0
 20 22  2  0
 21 23  2  0
 22 23  1  0
 23 24  1  0
M  END
>  <comRMSD>  (292) 
0.248245

>  <∆∆G>  (292) 
-5.865707

>  <N_constrained_atoms>  (292) 
22.0

>  <LE>  (292) 
-0.244404

>  <ref_pdb>  (292) 
x0104_0

>  <ref_mols>  (292) 
x0905_0_A_α,x1015_0_A_α

>  <%Rank>  (292) 
4.993137

>  <generation_date>  (292) 
nan

>  <method>  (292) 
nan

>  <submitter_email>  (292) 
nan

>  <original SMILES>  (292) 
O=C1NC(=O)N(c2ccc(Cl)cc2)C1CCCc1ccnc(O)c1

>  <ref_url>  (292) 
nan

>  <submitter_name>  (292) 
nan

>  <submitter_institution>  (292) 
nan

$$$$
x0814_0_B_α-x0142_0_A_β
     RDKit          3D

 22 23  0  0  0  0  0  0  0  0999 V2000
   15.3430   12.2270   13.9510 C   0  0  2  0  0  0  0  0  0  0  0  0
   15.1850   12.3530   15.4750 C   0  0  0  0  0  0  0  0  0  0  0  0
   14.2900   12.9930   13.0680 C   0  0  2  0  0  0  0  0  0  0  0  0
   15.2640   10.7530   13.5660 C   0  0  0  0  0  0  0  0  0  0  0  0
   13.1470   12.0410   12.7740 N   0  0  0  0  0  0  0  0  0  0  0  0
   14.7920   13.5140   11.7160 C   0  0  1  0  0  0  0  0  0  0  0  0
   14.5680    9.8000   14.3190 C   0  0  0  0  0  0  0  0  0  0  0  0
   15.9040   10.3400   12.3890 C   0  0  0  0  0  0  0  0  0  0  0  0
   15.8130   14.6380   11.8340 C   0  0  0  0  0  0  0  0  0  0  0  0
   11.6360   12.4790   13.2020 S   0  0  0  0  0  0  0  0  0  0  0  0
   13.2630   10.9900   11.7550 C   0  0  0  0  0  0  0  0  0  0  0  0
   15.1830   12.2900   10.8860 C   0  0  0  0  0  0  0  0  0  0  0  0
   14.5100    8.4690   13.8950 C   0  0  0  0  0  0  0  0  0  0  0  0
   15.8400    9.0130   11.9710 C   0  0  0  0  0  0  0  0  0  0  0  0
   11.6320   13.9120   13.0120 O   0  0  0  0  0  0  0  0  0  0  0  0
   17.0150   14.5020   11.2150 N   0  0  0  0  0  0  0  0  0  0  0  0
   10.6390   11.5900   12.6110 O   0  0  0  0  0  0  0  0  0  0  0  0
   15.5960   15.6660   12.4590 O   0  0  0  0  0  0  0  0  0  0  0  0
   11.7340   12.1120   14.9450 C   0  0  0  0  0  0  0  0  0  0  0  0
   13.8900   11.5590   10.5190 C   0  0  0  0  0  0  0  0  0  0  0  0
   15.1420    8.0650   12.7140 C   0  0  0  0  0  0  0  0  0  0  0  0
   15.0730    6.7340   12.2870 N   0  0  0  0  0  0  0  0  0  0  0  0
  1  2  1  1
  1  3  1  0
  1  4  1  0
  3  5  1  6
  3  6  1  0
  4  7  2  0
  4  8  1  0
  6  9  1  1
  5 10  1  0
  5 11  1  0
  6 12  1  0
  7 13  1  0
  8 14  2  0
 10 15  2  0
  9 16  1  0
 10 17  2  0
  9 18  2  0
 10 19  1  0
 11 20  1  0
 12 20  1  0
 13 21  2  0
 14 21  1  0
 21 22  1  0
M  END
>  <comRMSD>  (293) 
0.442621

>  <∆∆G>  (293) 
-3.900665

>  <N_constrained_atoms>  (293) 
22.0

>  <LE>  (293) 
-0.177303

>  <ref_pdb>  (293) 
x0104_0

>  <ref_mols>  (293) 
x0814_0_B_α,x0142_0_A_β

>  <%Rank>  (293) 
5.010295

>  <generation_date>  (293) 
nan

>  <method>  (293) 
nan

>  <submitter_email>  (293) 
nan

>  <original SMILES>  (293) 
CC(c1ccc(N)cc1)C1C(C(N)=O)CCCN1S(C)(=O)=O

>  <ref_url>  (293) 
nan

>  <submitter_name>  (293) 
nan

>  <submitter_institution>  (293) 
nan

$$$$
x0844_0_A_α-x0685_0_A_α
     RDKit          3D

 12 12  0  0  0  0  0  0  0  0999 V2000
   -7.5980   14.7500   -0.0570 O   0  0  0  0  0  0  0  0  0  0  0  0
   -6.3770   14.8270    0.0490 C   0  0  0  0  0  0  0  0  0  0  0  0
   -5.6210   14.8020    1.2410 N   0  0  0  0  0  0  0  0  0  0  0  0
   -5.5800   14.9560   -1.2030 C   0  0  0  0  0  0  0  0  0  0  0  0
   -6.2550   14.9840    2.5010 N   0  0  0  0  0  0  0  0  0  0  0  0
   -4.2450   14.9060    1.2450 C   0  0  0  0  0  0  0  0  0  0  0  0
   -4.2440   15.0420   -1.1630 C   0  0  0  0  0  0  0  0  0  0  0  0
   -3.4990   15.1460   -2.3760 C   0  0  0  0  0  0  0  0  0  0  0  0
   -7.6990   14.8020    2.5550 C   0  0  0  0  0  0  0  0  0  0  0  0
   -3.5520   15.0240    0.1080 C   0  0  0  0  0  0  0  0  0  0  0  0
   -8.0800   13.3770    2.9120 C   0  0  0  0  0  0  0  0  0  0  0  0
   -2.9230   15.2240   -3.3790 N   0  0  0  0  0  0  0  0  0  0  0  0
  1  2  2  0
  2  3  1  0
  2  4  1  0
  3  5  1  0
  3  6  1  0
  4  7  2  0
  7  8  1  0
  5  9  1  0
  6 10  2  0
  7 10  1  0
  9 11  1  0
  8 12  3  0
M  END
>  <comRMSD>  (294) 
0.309874

>  <∆∆G>  (294) 
-4.297041

>  <N_constrained_atoms>  (294) 
12.0

>  <LE>  (294) 
-0.358087

>  <ref_pdb>  (294) 
x0104_0

>  <ref_mols>  (294) 
x0844_0_A_α,x0685_0_A_α

>  <%Rank>  (294) 
5.027454

>  <generation_date>  (294) 
nan

>  <method>  (294) 
nan

>  <submitter_email>  (294) 
nan

>  <original SMILES>  (294) 
CCNn1ccc(C#N)cc1=O

>  <ref_url>  (294) 
nan

>  <submitter_name>  (294) 
nan

>  <submitter_institution>  (294) 
nan

$$$$
x0962_1_A_α-x0371_0_A_α
     RDKit          3D

 15 16  0  0  0  0  0  0  0  0999 V2000
   -3.4220   15.1890   -1.3780 N   0  0  0  0  0  0  0  0  0  0  0  0
   -4.3710   15.0500   -0.7310 C   0  0  0  0  0  0  0  0  0  0  0  0
   -5.5710   14.8590   -0.0010 C   0  0  0  0  0  0  0  0  0  0  0  0
   -5.7090   14.8300    1.3680 N   0  0  0  0  0  0  0  0  0  0  0  0
   -6.8360   14.6650   -0.4870 C   0  0  0  0  0  0  0  0  0  0  0  0
   -7.0540   14.6220    1.6540 C   0  0  0  0  0  0  0  0  0  0  0  0
   -7.7320   14.5200    0.5380 N   0  0  0  0  0  0  0  0  0  0  0  0
   -7.5060   14.5500    2.9460 N   0  0  0  0  0  0  0  0  0  0  0  0
   -8.4360   15.3690    3.5790 C   0  0  0  0  0  0  0  0  0  0  0  0
   -9.2140   15.9870    2.8340 O   0  0  0  0  0  0  0  0  0  0  0  0
   -8.4980   15.4960    5.0210 C   0  0  0  0  0  0  0  0  0  0  0  0
   -8.0200   14.4440    5.7580 O   0  0  0  0  0  0  0  0  0  0  0  0
   -8.9440   16.4730    5.8950 C   0  0  0  0  0  0  0  0  0  0  0  0
   -8.1550   14.7440    7.0650 C   0  0  0  0  0  0  0  0  0  0  0  0
   -8.7220   15.9840    7.2090 C   0  0  0  0  0  0  0  0  0  0  0  0
  1  2  3  0
  2  3  1  0
  3  4  1  0
  3  5  2  0
  4  6  1  0
  5  7  1  0
  6  7  2  0
  6  8  1  0
  8  9  1  0
  9 10  2  0
  9 11  1  0
 11 12  1  0
 11 13  2  0
 12 14  1  0
 13 15  1  0
 14 15  2  0
M  END
>  <comRMSD>  (295) 
0.350538

>  <∆∆G>  (295) 
-4.178288

>  <N_constrained_atoms>  (295) 
15.0

>  <LE>  (295) 
-0.278553

>  <ref_pdb>  (295) 
x0104_0

>  <ref_mols>  (295) 
x0962_1_A_α,x0371_0_A_α

>  <%Rank>  (295) 
5.044612

>  <generation_date>  (295) 
nan

>  <method>  (295) 
nan

>  <submitter_email>  (295) 
nan

>  <original SMILES>  (295) 
N#Cc1cnc(NC(=O)c2ccco2)[nH]1

>  <ref_url>  (295) 
nan

>  <submitter_name>  (295) 
nan

>  <submitter_institution>  (295) 
nan

$$$$
x0128_0_A_α-x1012_0_A_α
     RDKit          3D

 31 33  0  0  0  0  0  0  0  0999 V2000
   -6.5950   14.8370    2.5380 N   0  0  0  0  0  0  0  0  0  0  0  0
   -7.8130   15.2160    3.0860 C   0  0  0  0  0  0  0  0  0  0  0  0
   -8.8400   15.4130    2.4540 O   0  0  0  0  0  0  0  0  0  0  0  0
   -6.1860   14.8090    1.1910 C   0  0  0  0  0  0  0  0  0  0  0  0
   -7.6870   15.3530    4.4610 N   0  0  0  0  0  0  0  0  0  0  0  0
   -7.0500   14.5450    0.1440 C   0  0  0  0  0  0  0  0  0  0  0  0
   -4.8290   15.0650    0.9120 C   0  0  0  0  0  0  0  0  0  0  0  0
   -6.5870   14.5260   -1.1670 C   0  0  0  0  0  0  0  0  0  0  0  0
   -4.3610   15.0470   -0.4100 C   0  0  0  0  0  0  0  0  0  0  0  0
   -8.4930   16.0980    5.3530 C   0  0  0  0  0  0  0  0  0  0  0  0
   -5.2500   14.7690   -1.4600 C   0  0  0  0  0  0  0  0  0  0  0  0
   -9.1520   17.2410    4.8920 C   0  0  0  0  0  0  0  0  0  0  0  0
   -8.6860   15.7690    6.6910 C   0  0  0  0  0  0  0  0  0  0  0  0
   -4.8180   14.7130   -2.9040 C   0  0  0  0  0  0  0  0  0  0  0  0
   -9.9500   18.0330    5.6470 N   0  0  0  0  0  0  0  0  0  0  0  0
   -9.5020   16.5660    7.4980 C   0  0  0  0  0  0  0  0  0  0  0  0
   -3.4840   15.3990   -3.1140 C   0  0  0  0  0  0  0  0  0  0  0  0
  -10.1060   17.6780    6.9340 C   0  0  0  0  0  0  0  0  0  0  0  0
   -3.2090   15.7730   -4.5760 C   0  0  0  0  0  0  0  0  0  0  0  0
   -2.5120   17.0550   -4.6310 N   0  0  0  0  0  0  0  0  0  0  0  0
   -1.2450   17.0510   -4.7720 C   0  0  0  0  0  0  0  0  0  0  0  0
   -0.4610   18.1580   -4.8260 N   0  0  0  0  0  0  0  0  0  0  0  0
   -0.5410   15.8620   -4.8720 N   0  0  0  0  0  0  0  0  0  0  0  0
   -1.2490   14.5850   -5.0920 C   0  0  0  0  0  0  0  0  0  0  0  0
    0.8840   15.7240   -4.5070 C   0  0  0  0  0  0  0  0  0  0  0  0
   -1.1510   13.7180   -3.8520 C   0  0  0  0  0  0  0  0  0  0  0  0
    1.0820   14.7090   -3.3650 C   0  0  0  0  0  0  0  0  0  0  0  0
    0.3020   13.3970   -3.5540 C   0  0  0  0  0  0  0  0  0  0  0  0
    0.3770   12.4480   -2.3710 C   0  0  0  0  0  0  0  0  0  0  0  0
    0.1330   11.1670   -2.7170 O   0  0  0  0  0  0  0  0  0  0  0  0
    0.6110   12.7630   -1.2170 O   0  0  0  0  0  0  0  0  0  0  0  0
  1  2  1  0
  2  3  2  0
  1  4  1  0
  2  5  1  0
  4  6  2  0
  4  7  1  0
  6  8  1  0
  7  9  2  0
  5 10  1  0
  8 11  2  0
  9 11  1  0
 10 12  2  0
 10 13  1  0
 11 14  1  0
 12 15  1  0
 13 16  2  0
 14 17  1  0
 15 18  2  0
 16 18  1  0
 17 19  1  0
 19 20  1  0
 20 21  2  3
 21 22  1  0
 21 23  1  0
 23 24  1  0
 23 25  1  0
 24 26  1  0
 25 27  1  0
 26 28  1  0
 27 28  1  0
 28 29  1  0
 29 30  1  0
 29 31  2  0
M  END
>  <comRMSD>  (296) 
0.314822

>  <∆∆G>  (296) 
-8.599665

>  <N_constrained_atoms>  (296) 
28.0

>  <LE>  (296) 
-0.277409

>  <ref_pdb>  (296) 
x0104_0

>  <ref_mols>  (296) 
x0128_0_A_α,x1012_0_A_α

>  <%Rank>  (296) 
5.061771

>  <generation_date>  (296) 
nan

>  <method>  (296) 
nan

>  <submitter_email>  (296) 
nan

>  <original SMILES>  (296) 
NC(=NCCCc1ccc(NC(=O)Nc2cccnc2)cc1)N1CCC(C(=O)O)CC1

>  <ref_url>  (296) 
nan

>  <submitter_name>  (296) 
nan

>  <submitter_institution>  (296) 
nan

$$$$
x0253_0_A_α-x0676_0_B_α
     RDKit          3D

 28 30  0  0  0  0  0  0  0  0999 V2000
    0.3850   12.0510   -5.4620 N   0  0  0  0  0  0  0  0  0  0  0  0
    1.0940   11.6670   -6.5720 C   0  0  0  0  0  0  0  0  0  0  0  0
    2.1830   12.1560   -6.7500 O   0  0  0  0  0  0  0  0  0  0  0  0
    1.0740   12.8300   -4.4490 C   0  0  0  0  0  0  0  0  0  0  0  0
    0.8650   12.2800   -3.0380 C   0  0  0  0  0  0  0  0  0  0  0  0
    0.4720   10.6270   -7.4590 C   0  0  0  0  0  0  0  0  0  0  0  0
    1.2980   12.8210   -2.0340 O   0  0  0  0  0  0  0  0  0  0  0  0
    0.1530   11.1270   -2.9830 O   0  0  0  0  0  0  0  0  0  0  0  0
   -0.5710    9.9260   -6.8560 C   0  0  0  0  0  0  0  0  0  0  0  0
    0.8500   10.3120   -8.7960 C   0  0  0  0  0  0  0  0  0  0  0  0
   -1.2520    8.9270   -7.5350 C   0  0  0  0  0  0  0  0  0  0  0  0
    0.1390    9.2800   -9.4690 C   0  0  0  0  0  0  0  0  0  0  0  0
   -2.3730    8.1730   -6.8960 C   0  0  0  0  0  0  0  0  0  0  0  0
    0.3110    8.7380  -10.8580 C   0  0  0  0  0  0  0  0  0  0  0  0
   -0.8860    8.6250   -8.8210 C   0  0  0  0  0  0  0  0  0  0  0  0
    1.6100    8.7450  -11.4600 N   0  0  0  0  0  0  0  0  0  0  0  0
    2.7360    8.2140  -11.1640 C   0  0  0  0  0  0  0  0  0  0  0  0
    3.0500    7.3660   -9.9380 C   0  0  0  0  0  0  0  0  0  0  0  0
    3.8970    8.2740  -11.8690 N   0  0  0  0  0  0  0  0  0  0  0  0
    5.0090    7.7340  -11.2360 N   0  0  0  0  0  0  0  0  0  0  0  0
    4.5570    7.2280  -10.1270 C   0  0  0  0  0  0  0  0  0  0  0  0
    4.0780    9.2520  -12.8770 C   0  0  0  0  0  0  0  0  0  0  0  0
    5.4550    6.5700   -9.1330 C   0  0  0  0  0  0  0  0  0  0  0  0
    3.1590   10.3270  -12.9310 C   0  0  0  0  0  0  0  0  0  0  0  0
    5.0970    9.2300  -13.8270 C   0  0  0  0  0  0  0  0  0  0  0  0
    3.2570   11.3310  -13.8880 C   0  0  0  0  0  0  0  0  0  0  0  0
    5.1980   10.2360  -14.7940 C   0  0  0  0  0  0  0  0  0  0  0  0
    4.2770   11.2870  -14.8230 C   0  0  0  0  0  0  0  0  0  0  0  0
  1  2  1  0
  2  3  2  0
  1  4  1  0
  4  5  1  0
  2  6  1  0
  5  7  2  0
  5  8  1  0
  6  9  2  0
  6 10  1  0
  9 11  1  0
 10 12  2  0
 11 13  1  0
 12 14  1  0
 11 15  2  0
 12 15  1  0
 14 16  1  0
 16 17  2  3
 17 18  1  0
 17 19  1  0
 19 20  1  0
 18 21  1  0
 20 21  2  0
 19 22  1  0
 21 23  1  0
 22 24  2  0
 22 25  1  0
 24 26  1  0
 25 27  2  0
 26 28  2  0
 27 28  1  0
M  END
>  <comRMSD>  (297) 
0.45733

>  <∆∆G>  (297) 
-6.638397

>  <N_constrained_atoms>  (297) 
27.0

>  <LE>  (297) 
-0.237086

>  <ref_pdb>  (297) 
x0104_0

>  <ref_mols>  (297) 
x0253_0_A_α,x0676_0_B_α

>  <%Rank>  (297) 
5.078929

>  <generation_date>  (297) 
nan

>  <method>  (297) 
nan

>  <submitter_email>  (297) 
nan

>  <original SMILES>  (297) 
CC1=NN(c2ccccc2)C(=NCc2cc(C)cc(C(=O)NCC(=O)O)c2)C1

>  <ref_url>  (297) 
nan

>  <submitter_name>  (297) 
nan

>  <submitter_institution>  (297) 
nan

$$$$
x0104_0_A_α-x0438_0_A_α
     RDKit          3D

 20 22  0  0  0  0  0  0  0  0999 V2000
   -7.9980   14.8630    3.4650 C   0  0  0  0  0  0  0  0  0  0  0  0
   -8.3190   15.7080    4.6210 N   0  0  0  0  0  0  0  0  0  0  0  0
   -9.3340   15.4180    5.4790 C   0  0  0  0  0  0  0  0  0  0  0  0
   -9.1340   14.9680    2.3930 C   0  0  0  0  0  0  0  0  0  0  0  0
  -10.3720   14.5460    2.9490 O   0  0  0  0  0  0  0  0  0  0  0  0
   -8.7530   14.1100    1.1850 C   0  0  0  0  0  0  0  0  0  0  0  0
   -9.3060   16.3340    2.0000 O   0  0  0  0  0  0  0  0  0  0  0  0
   -9.2860   15.1680    6.8350 C   0  0  0  0  0  0  0  0  0  0  0  0
  -10.9530   15.3270    4.9090 S   0  0  0  0  0  0  0  0  0  0  0  0
   -7.3670   14.3760    0.7110 C   0  0  0  0  0  0  0  0  0  0  0  0
  -10.5750   14.9050    7.3960 C   0  0  0  0  0  0  0  0  0  0  0  0
  -11.5710   14.9600    6.4520 C   0  0  0  0  0  0  0  0  0  0  0  0
   -7.0930   14.7510   -0.5750 N   0  0  0  0  0  0  0  0  0  0  0  0
   -6.2690   14.2930    1.4220 N   0  0  0  0  0  0  0  0  0  0  0  0
   -5.2460   14.6230    0.5730 C   0  0  0  0  0  0  0  0  0  0  0  0
   -5.7430   14.9140   -0.6900 C   0  0  0  0  0  0  0  0  0  0  0  0
   -4.9430   15.2790   -1.7600 C   0  0  0  0  0  0  0  0  0  0  0  0
   -3.8660   14.6930    0.8060 C   0  0  0  0  0  0  0  0  0  0  0  0
   -3.5700   15.3410   -1.5180 C   0  0  0  0  0  0  0  0  0  0  0  0
   -3.0360   15.0530   -0.2550 C   0  0  0  0  0  0  0  0  0  0  0  0
  1  2  1  0
  2  3  1  0
  1  4  1  0
  4  5  1  0
  4  6  1  0
  4  7  1  0
  3  8  2  0
  3  9  1  0
  6 10  1  0
  8 11  1  0
  9 12  1  0
 11 12  2  0
 10 13  1  0
 10 14  2  0
 14 15  1  0
 13 16  1  0
 15 16  2  0
 16 17  1  0
 15 18  1  0
 17 19  2  0
 18 20  2  0
 19 20  1  0
M  END
>  <comRMSD>  (298) 
0.396116

>  <∆∆G>  (298) 
-3.049949

>  <N_constrained_atoms>  (298) 
20.0

>  <LE>  (298) 
-0.152497

>  <ref_pdb>  (298) 
x0104_0

>  <ref_mols>  (298) 
x0104_0_A_α,x0438_0_A_α

>  <%Rank>  (298) 
5.096088

>  <generation_date>  (298) 
nan

>  <method>  (298) 
nan

>  <submitter_email>  (298) 
nan

>  <original SMILES>  (298) 
OC(O)(CNc1cccs1)Cc1nc2ccccc2[nH]1

>  <ref_url>  (298) 
nan

>  <submitter_name>  (298) 
nan

>  <submitter_institution>  (298) 
nan

$$$$
x1012_0_A_α-x0626_0_A_α
     RDKit          3D

 25 26  0  0  0  0  0  0  0  0999 V2000
   -0.3830   18.1910   -4.4330 N   0  0  0  0  0  0  0  0  0  0  0  0
   -1.2660   17.1840   -4.6130 C   0  0  0  0  0  0  0  0  0  0  0  0
   -2.4530   17.4500   -4.6820 O   0  0  0  0  0  0  0  0  0  0  0  0
   -0.7450   15.9140   -4.7010 N   0  0  0  0  0  0  0  0  0  0  0  0
   -1.6940   14.8000   -4.6790 C   0  0  0  0  0  0  0  0  0  0  0  0
    0.6940   15.6080   -4.7250 C   0  0  0  0  0  0  0  0  0  0  0  0
   -1.3300   13.7720   -3.6200 C   0  0  0  0  0  0  0  0  0  0  0  0
    1.1040   14.5150   -3.7330 C   0  0  0  0  0  0  0  0  0  0  0  0
    0.1260   13.3250   -3.7690 C   0  0  0  0  0  0  0  0  0  0  0  0
    0.4180   12.2350   -2.7460 C   0  0  0  0  0  0  0  0  0  0  0  0
    0.3670   10.9800   -3.2150 O   0  0  0  0  0  0  0  0  0  0  0  0
    0.6830   12.4300   -1.5180 N   0  0  0  0  0  0  0  0  0  0  0  0
    0.7220   13.7780   -1.0090 C   0  0  0  0  0  0  0  0  0  0  0  0
    0.0350   13.6590    0.3320 C   0  0  0  0  0  0  0  0  0  0  0  0
   -0.3380   14.9320    0.9770 C   0  0  0  0  0  0  0  0  0  0  0  0
   -1.7140   15.1240    0.5690 C   0  0  0  0  0  0  0  0  0  0  0  0
   -2.6800   14.8850    1.4990 N   0  0  0  0  0  0  0  0  0  0  0  0
   -2.1340   15.5020   -0.6860 C   0  0  0  0  0  0  0  0  0  0  0  0
   -3.8390   15.0780    0.9220 C   0  0  0  0  0  0  0  0  0  0  0  0
   -3.8370   15.5530   -0.7170 S   0  0  0  0  0  0  0  0  0  0  0  0
   -5.0670   14.9450    1.4600 N   0  0  0  0  0  0  0  0  0  0  0  0
   -6.2100   14.6760    0.7760 C   0  0  0  0  0  0  0  0  0  0  0  0
   -6.2000   14.7520   -0.4590 O   0  0  0  0  0  0  0  0  0  0  0  0
   -7.4560   14.3010    1.5480 C   0  0  0  0  0  0  0  0  0  0  0  0
   -8.7240   14.7000    0.8150 C   0  0  0  0  0  0  0  0  0  0  0  0
  1  2  1  0
  2  3  2  0
  2  4  1  0
  4  5  1  0
  4  6  1  0
  5  7  1  0
  6  8  1  0
  7  9  1  0
  8  9  1  0
  9 10  1  0
 10 11  1  0
 10 12  2  3
 12 13  1  0
 13 14  1  0
 14 15  1  0
 15 16  1  0
 16 17  1  0
 16 18  2  0
 17 19  2  0
 18 20  1  0
 19 20  1  0
 19 21  1  0
 21 22  1  0
 22 23  2  0
 22 24  1  0
 24 25  1  0
M  END
>  <comRMSD>  (299) 
0.380634

>  <∆∆G>  (299) 
-11.290493

>  <N_constrained_atoms>  (299) 
23.0

>  <LE>  (299) 
-0.45162

>  <ref_pdb>  (299) 
x0104_0

>  <ref_mols>  (299) 
x1012_0_A_α,x0626_0_A_α

>  <%Rank>  (299) 
5.113246

>  <generation_date>  (299) 
nan

>  <method>  (299) 
nan

>  <submitter_email>  (299) 
nan

>  <original SMILES>  (299) 
CCC(=O)Nc1nc(CCCN=C(O)C2CCN(C(N)=O)CC2)cs1

>  <ref_url>  (299) 
nan

>  <submitter_name>  (299) 
nan

>  <submitter_institution>  (299) 
nan

$$$$
x0290_0_A_α-x1012_0_A_α
     RDKit          3D

 25 26  0  0  0  0  0  0  0  0999 V2000
   -7.8270   13.7970    0.9850 N   0  0  0  0  0  0  0  0  0  0  0  0
   -8.6100   14.9860    0.6730 C   0  0  0  0  0  0  0  0  0  0  0  0
   -6.6190   14.1070    1.7850 C   0  0  0  0  0  0  0  0  0  0  0  0
   -5.4220   14.5850    0.9420 C   0  0  0  0  0  0  0  0  0  0  0  0
   -5.4760   14.7290   -0.2850 O   0  0  0  0  0  0  0  0  0  0  0  0
   -4.2270   14.8610    1.5550 N   0  0  0  0  0  0  0  0  0  0  0  0
   -2.9560   14.6510    1.0360 C   0  0  0  0  0  0  0  0  0  0  0  0
   -1.8220   14.7520    1.7630 N   0  0  0  0  0  0  0  0  0  0  0  0
   -2.9330   14.3210   -0.2950 C   0  0  0  0  0  0  0  0  0  0  0  0
   -0.6440   14.5190    1.1400 C   0  0  0  0  0  0  0  0  0  0  0  0
   -1.7340   14.0790   -0.9300 C   0  0  0  0  0  0  0  0  0  0  0  0
   -1.7850   13.7120   -2.3820 C   0  0  0  0  0  0  0  0  0  0  0  0
   -0.5450   14.1830   -0.1990 C   0  0  0  0  0  0  0  0  0  0  0  0
   -0.8510   14.5530   -3.2060 C   0  0  2  0  0  0  0  0  0  0  0  0
   -1.3540   14.8480   -4.6140 C   0  0  0  0  0  0  0  0  0  0  0  0
    0.6140   14.1110   -3.2110 C   0  0  1  0  0  0  0  0  0  0  0  0
    0.8410   12.6410   -2.9010 C   0  0  0  0  0  0  0  0  0  0  0  0
    1.3000   14.5260   -4.5110 C   0  0  0  0  0  0  0  0  0  0  0  0
   -0.6290   16.0220   -5.0800 N   0  0  0  0  0  0  0  0  0  0  0  0
   -1.2570   17.2200   -4.8470 C   0  0  0  0  0  0  0  0  0  0  0  0
    0.1100   11.7640   -3.6220 O   0  0  0  0  0  0  0  0  0  0  0  0
    1.6150   12.2680   -2.0570 O   0  0  0  0  0  0  0  0  0  0  0  0
    0.8330   15.9030   -4.9840 C   0  0  0  0  0  0  0  0  0  0  0  0
   -0.4540   18.2860   -4.6700 N   0  0  0  0  0  0  0  0  0  0  0  0
   -2.4660   17.3800   -4.7730 O   0  0  0  0  0  0  0  0  0  0  0  0
  1  2  1  0
  1  3  1  0
  3  4  1  0
  4  5  2  0
  4  6  1  0
  6  7  1  0
  7  8  2  0
  7  9  1  0
  8 10  1  0
  9 11  2  0
 11 12  1  0
 10 13  2  0
 11 13  1  0
 14 12  1  6
 14 15  1  0
 14 16  1  0
 16 17  1  6
 16 18  1  0
 15 19  1  0
 19 20  1  0
 17 21  1  0
 17 22  2  0
 18 23  1  0
 19 23  1  0
 20 24  1  0
 20 25  2  0
M  END
>  <comRMSD>  (300) 
0.606209

>  <∆∆G>  (300) 
-10.104862

>  <N_constrained_atoms>  (300) 
25.0

>  <LE>  (300) 
-0.404194

>  <ref_pdb>  (300) 
x0104_0

>  <ref_mols>  (300) 
x0290_0_A_α,x1012_0_A_α

>  <%Rank>  (300) 
5.130405

>  <generation_date>  (300) 
nan

>  <method>  (300) 
nan

>  <submitter_email>  (300) 
nan

>  <original SMILES>  (300) 
CNCC(=O)Nc1cc(CC2CN(C(N)=O)CCC2C(=O)O)ccn1

>  <ref_url>  (300) 
nan

>  <submitter_name>  (300) 
nan

>  <submitter_institution>  (300) 
nan

$$$$
x0371_0_A_β-x0471_0_A_α
     RDKit          3D

 16 17  0  0  0  0  0  0  0  0999 V2000
   -8.4880   14.2210    1.5690 C   0  0  0  0  0  0  0  0  0  0  0  0
   -8.3130   14.2670    3.0030 N   0  0  0  0  0  0  0  0  0  0  0  0
   -9.0170   15.1910    3.7450 C   0  0  0  0  0  0  0  0  0  0  0  0
   -7.2110   14.4930    0.8400 C   0  0  0  0  0  0  0  0  0  0  0  0
   -5.9680   14.4550    1.4430 N   0  0  0  0  0  0  0  0  0  0  0  0
   -7.0930   14.7950   -0.4400 N   0  0  0  0  0  0  0  0  0  0  0  0
   -9.4910   16.1970    3.2290 O   0  0  0  0  0  0  0  0  0  0  0  0
   -9.1890   14.8680    5.2280 C   0  0  0  0  0  0  0  0  0  0  0  0
   -5.0240   14.7370    0.4950 C   0  0  0  0  0  0  0  0  0  0  0  0
   -5.7500   14.9470   -0.6680 C   0  0  0  0  0  0  0  0  0  0  0  0
   -9.6740   13.4360    5.4400 C   0  0  0  0  0  0  0  0  0  0  0  0
   -7.9030   15.1370    5.9950 C   0  0  0  0  0  0  0  0  0  0  0  0
   -3.6380   14.8180    0.5670 C   0  0  0  0  0  0  0  0  0  0  0  0
   -5.0690   15.2630   -1.8500 C   0  0  0  0  0  0  0  0  0  0  0  0
   -2.9790   15.1230   -0.6230 C   0  0  0  0  0  0  0  0  0  0  0  0
   -3.6760   15.3460   -1.8120 C   0  0  0  0  0  0  0  0  0  0  0  0
  1  2  1  0
  2  3  1  0
  1  4  1  0
  4  5  1  0
  4  6  2  0
  3  7  2  0
  3  8  1  0
  5  9  1  0
  6 10  1  0
  9 10  2  0
  8 11  1  0
  8 12  1  0
  9 13  1  0
 10 14  1  0
 13 15  2  0
 14 16  2  0
 15 16  1  0
M  END
>  <comRMSD>  (301) 
0.39434

>  <∆∆G>  (301) 
-5.020263

>  <N_constrained_atoms>  (301) 
16.0

>  <LE>  (301) 
-0.313766

>  <ref_pdb>  (301) 
x0104_0

>  <ref_mols>  (301) 
x0371_0_A_β,x0471_0_A_α

>  <%Rank>  (301) 
5.147563

>  <generation_date>  (301) 
nan

>  <method>  (301) 
nan

>  <submitter_email>  (301) 
nan

>  <original SMILES>  (301) 
CC(C)C(=O)NCc1nc2ccccc2[nH]1

>  <ref_url>  (301) 
nan

>  <submitter_name>  (301) 
nan

>  <submitter_institution>  (301) 
nan

$$$$
x0128_0_A_α-x1018_0_A_α
     RDKit          3D

 19 21  0  0  0  0  0  0  0  0999 V2000
   -6.6460   14.6060    2.4990 N   0  0  0  0  0  0  0  0  0  0  0  0
   -7.7330   15.1890    3.0810 C   0  0  0  0  0  0  0  0  0  0  0  0
   -8.7850   15.4870    2.5130 O   0  0  0  0  0  0  0  0  0  0  0  0
   -6.1060   14.7400    1.2070 C   0  0  0  0  0  0  0  0  0  0  0  0
   -7.6150   15.4670    4.4240 N   0  0  0  0  0  0  0  0  0  0  0  0
   -6.9950   14.7880    0.1250 C   0  0  0  0  0  0  0  0  0  0  0  0
   -4.7210   14.8190    0.9990 C   0  0  0  0  0  0  0  0  0  0  0  0
   -6.5300   14.9140   -1.1920 C   0  0  0  0  0  0  0  0  0  0  0  0
   -4.2900   14.9340   -0.3190 C   0  0  0  0  0  0  0  0  0  0  0  0
   -8.4570   16.2010    5.2810 C   0  0  0  0  0  0  0  0  0  0  0  0
   -5.1510   14.9830   -1.4020 C   0  0  0  0  0  0  0  0  0  0  0  0
   -9.1840   17.3300    4.9130 C   0  0  0  0  0  0  0  0  0  0  0  0
   -8.5840   15.7750    6.6060 C   0  0  0  0  0  0  0  0  0  0  0  0
   -3.0610   15.0210   -0.8980 N   0  0  0  0  0  0  0  0  0  0  0  0
   -9.9920   18.0270    5.7430 N   0  0  0  0  0  0  0  0  0  0  0  0
   -9.4080   16.4770    7.4840 C   0  0  0  0  0  0  0  0  0  0  0  0
   -3.1450   15.1160   -2.2330 N   0  0  0  0  0  0  0  0  0  0  0  0
   -4.4300   15.0950   -2.5520 N   0  0  0  0  0  0  0  0  0  0  0  0
  -10.0860   17.5890    7.0120 C   0  0  0  0  0  0  0  0  0  0  0  0
  1  2  1  0
  2  3  2  0
  1  4  1  0
  2  5  1  0
  4  6  2  0
  4  7  1  0
  6  8  1  0
  7  9  2  0
  5 10  1  0
  8 11  2  0
  9 11  1  0
 10 12  2  0
 10 13  1  0
  9 14  1  0
 12 15  1  0
 13 16  2  0
 14 17  1  0
 11 18  1  0
 17 18  2  0
 15 19  2  0
 16 19  1  0
M  END
>  <comRMSD>  (302) 
0.459833

>  <∆∆G>  (302) 
-5.982989

>  <N_constrained_atoms>  (302) 
19.0

>  <LE>  (302) 
-0.314894

>  <ref_pdb>  (302) 
x0104_0

>  <ref_mols>  (302) 
x0128_0_A_α,x1018_0_A_α

>  <%Rank>  (302) 
5.164722

>  <generation_date>  (302) 
nan

>  <method>  (302) 
nan

>  <submitter_email>  (302) 
nan

>  <original SMILES>  (302) 
O=C(Nc1cccnc1)Nc1ccc2nn[nH]c2c1

>  <ref_url>  (302) 
nan

>  <submitter_name>  (302) 
nan

>  <submitter_institution>  (302) 
nan

$$$$
x0591_0_A_α-x0910_0_A_α
     RDKit          3D

 20 21  0  0  0  0  0  0  0  0999 V2000
   -5.9510   14.5800    0.8290 N   0  0  0  0  0  0  0  0  0  0  0  0
   -6.8290   14.4810    1.9700 C   0  0  0  0  0  0  0  0  0  0  0  0
   -6.4620   14.7980   -0.4360 C   0  0  0  0  0  0  0  0  0  0  0  0
   -7.6400   15.0200   -0.6560 O   0  0  0  0  0  0  0  0  0  0  0  0
   -5.4850   14.7400   -1.5560 C   0  0  0  0  0  0  0  0  0  0  0  0
   -4.1420   14.5300   -1.2640 C   0  0  0  0  0  0  0  0  0  0  0  0
   -5.8860   14.8860   -2.8770 C   0  0  0  0  0  0  0  0  0  0  0  0
   -3.1660   14.4630   -2.2670 C   0  0  0  0  0  0  0  0  0  0  0  0
   -4.9350   14.8190   -3.8970 C   0  0  0  0  0  0  0  0  0  0  0  0
   -1.8390   14.2560   -1.9220 N   0  0  0  0  0  0  0  0  0  0  0  0
   -3.5860   14.6130   -3.6030 C   0  0  0  0  0  0  0  0  0  0  0  0
   -2.4880   14.5580   -5.0050 S   0  0  0  0  0  0  0  0  0  0  0  0
   -1.2370   14.5640   -0.7680 C   0  0  0  0  0  0  0  0  0  0  0  0
   -1.2390   15.6050   -4.6020 N   0  0  0  0  0  0  0  0  0  0  0  0
   -1.8990   13.2440   -5.0850 O   0  0  0  0  0  0  0  0  0  0  0  0
   -3.1410   15.1810   -6.1400 O   0  0  0  0  0  0  0  0  0  0  0  0
   -1.9500   14.6330    0.4030 N   0  0  0  0  0  0  0  0  0  0  0  0
    0.0080   14.8380   -0.5200 N   0  0  0  0  0  0  0  0  0  0  0  0
   -1.1620   14.9570    1.4280 N   0  0  0  0  0  0  0  0  0  0  0  0
    0.0120   15.0760    0.8150 C   0  0  0  0  0  0  0  0  0  0  0  0
  1  2  1  0
  1  3  1  0
  3  4  2  0
  3  5  1  0
  5  6  2  0
  5  7  1  0
  6  8  1  0
  7  9  2  0
  8 10  1  0
  8 11  2  0
  9 11  1  0
 11 12  1  0
 10 13  1  0
 12 14  1  0
 12 15  2  0
 12 16  2  0
 13 17  1  0
 13 18  2  0
 17 19  1  0
 18 20  1  0
 19 20  2  0
M  END
>  <comRMSD>  (303) 
0.416496

>  <∆∆G>  (303) 
-3.783063

>  <N_constrained_atoms>  (303) 
20.0

>  <LE>  (303) 
-0.189153

>  <ref_pdb>  (303) 
x0104_0

>  <ref_mols>  (303) 
x0591_0_A_α,x0910_0_A_α

>  <%Rank>  (303) 
5.181881

>  <generation_date>  (303) 
nan

>  <method>  (303) 
nan

>  <submitter_email>  (303) 
nan

>  <original SMILES>  (303) 
CNC(=O)c1ccc(S(N)(=O)=O)c(Nc2ncn[nH]2)c1

>  <ref_url>  (303) 
nan

>  <submitter_name>  (303) 
nan

>  <submitter_institution>  (303) 
nan

$$$$
x0722_0_A_α-x0852_0_B_α
     RDKit          3D

 25 26  0  0  0  0  0  0  0  0999 V2000
   -4.8530   15.1900    2.2000 C   0  0  0  0  0  0  0  0  0  0  0  0
   -3.6600   14.9510    1.3700 C   0  0  0  0  0  0  0  0  0  0  0  0
   -2.5160   14.6310    1.9570 N   0  0  0  0  0  0  0  0  0  0  0  0
   -3.5320   15.0100   -0.0380 C   0  0  0  0  0  0  0  0  0  0  0  0
   -4.5920   15.3470   -1.0340 C   0  0  0  0  0  0  0  0  0  0  0  0
   -2.2030   14.6880   -0.2720 C   0  0  0  0  0  0  0  0  0  0  0  0
   -1.6480   14.4800    0.9610 N   0  0  0  0  0  0  0  0  0  0  0  0
   -0.2820   14.1320    1.2640 C   0  0  0  0  0  0  0  0  0  0  0  0
   -1.4380   14.5700   -1.5350 C   0  0  0  0  0  0  0  0  0  0  0  0
   -5.9670   14.7400   -0.7730 C   0  0  0  0  0  0  0  0  0  0  0  0
   -7.0800   15.3280   -1.0460 N   0  0  0  0  0  0  0  0  0  0  0  0
   -6.0400   13.4880   -0.2140 N   0  0  0  0  0  0  0  0  0  0  0  0
   -8.3920   14.7630   -0.8190 C   0  0  0  0  0  0  0  0  0  0  0  0
   -9.3750   15.9220   -0.6810 C   0  0  0  0  0  0  0  0  0  0  0  0
  -10.4190   15.6280    0.3860 C   0  0  0  0  0  0  0  0  0  0  0  0
  -10.4150   16.6380    1.3950 O   0  0  0  0  0  0  0  0  0  0  0  0
   -9.7900   16.3620    2.5850 C   0  0  0  0  0  0  0  0  0  0  0  0
   -8.8610   15.3180    2.5190 C   0  0  0  0  0  0  0  0  0  0  0  0
   -9.9920   17.0080    3.8070 C   0  0  0  0  0  0  0  0  0  0  0  0
   -8.1430   14.9230    3.6460 C   0  0  0  0  0  0  0  0  0  0  0  0
   -9.2720   16.6120    4.9480 C   0  0  0  0  0  0  0  0  0  0  0  0
   -9.5060   17.2860    6.1880 C   0  0  0  0  0  0  0  0  0  0  0  0
   -8.3480   15.5680    4.8570 C   0  0  0  0  0  0  0  0  0  0  0  0
   -9.7290   17.7880    7.2130 N   0  0  0  0  0  0  0  0  0  0  0  0
   -7.6030   15.1120    5.9060 O   0  0  0  0  0  0  0  0  0  0  0  0
  1  2  1  0
  2  3  2  0
  2  4  1  0
  4  5  1  0
  4  6  2  0
  3  7  1  0
  6  7  1  0
  7  8  1  0
  6  9  1  0
  5 10  1  0
 10 11  2  3
 10 12  1  0
 11 13  1  0
 13 14  1  0
 14 15  1  0
 15 16  1  0
 16 17  1  0
 17 18  2  0
 17 19  1  0
 18 20  1  0
 19 21  2  0
 21 22  1  0
 20 23  2  0
 21 23  1  0
 22 24  3  0
 23 25  1  0
M  END
>  <comRMSD>  (304) 
0.23919

>  <∆∆G>  (304) 
-11.083246

>  <N_constrained_atoms>  (304) 
22.0

>  <LE>  (304) 
-0.44333

>  <ref_pdb>  (304) 
x0104_0

>  <ref_mols>  (304) 
x0722_0_A_α,x0852_0_B_α

>  <%Rank>  (304) 
5.199039

>  <generation_date>  (304) 
nan

>  <method>  (304) 
nan

>  <submitter_email>  (304) 
nan

>  <original SMILES>  (304) 
Cc1nn(C)c(C)c1CC(N)=NCCCOc1ccc(O)c(C#N)c1

>  <ref_url>  (304) 
nan

>  <submitter_name>  (304) 
nan

>  <submitter_institution>  (304) 
nan

$$$$
x0104_0_A_α-x0711_0_A_α
     RDKit          3D

 23 24  0  0  0  0  0  0  0  0999 V2000
   -7.8170   14.8430    3.6700 C   0  0  0  0  0  0  0  0  0  0  0  0
   -8.2340   15.6470    4.6640 N   0  0  0  0  0  0  0  0  0  0  0  0
   -9.3010   15.4220    5.4610 C   0  0  0  0  0  0  0  0  0  0  0  0
   -8.5560   14.4940    2.6850 N   0  0  0  0  0  0  0  0  0  0  0  0
   -7.8100   13.5820    1.8430 C   0  0  0  0  0  0  0  0  0  0  0  0
   -6.6120   14.2550    1.4840 N   0  0  0  0  0  0  0  0  0  0  0  0
   -9.3850   15.3790    6.8360 C   0  0  0  0  0  0  0  0  0  0  0  0
  -10.8330   15.1290    4.7390 S   0  0  0  0  0  0  0  0  0  0  0  0
   -6.4900   14.6450    0.1800 C   0  0  0  0  0  0  0  0  0  0  0  0
  -10.7100   15.1050    7.2990 C   0  0  0  0  0  0  0  0  0  0  0  0
  -11.5950   14.9500    6.2580 C   0  0  0  0  0  0  0  0  0  0  0  0
   -7.4740   14.9240   -0.4910 O   0  0  0  0  0  0  0  0  0  0  0  0
   -5.1400   14.7190   -0.4490 C   0  0  0  0  0  0  0  0  0  0  0  0
   -5.1100   15.0770   -1.8030 C   0  0  0  0  0  0  0  0  0  0  0  0
   -3.9440   14.4570    0.2270 C   0  0  0  0  0  0  0  0  0  0  0  0
   -3.8940   15.1760   -2.4810 C   0  0  0  0  0  0  0  0  0  0  0  0
   -2.7210   14.5570   -0.4580 C   0  0  0  0  0  0  0  0  0  0  0  0
   -2.7020   14.9190   -1.8120 C   0  0  0  0  0  0  0  0  0  0  0  0
   -1.4790   15.0550   -2.5410 N   0  0  0  0  0  0  0  0  0  0  0  0
   -0.5280   13.8010   -3.1200 S   0  0  0  0  0  0  0  0  0  0  0  0
   -1.6920   12.7590   -3.9730 C   0  0  0  0  0  0  0  0  0  0  0  0
    0.3920   14.3510   -4.0900 O   0  0  0  0  0  0  0  0  0  0  0  0
   -0.0460   13.0950   -1.9500 O   0  0  0  0  0  0  0  0  0  0  0  0
  1  2  1  0
  2  3  1  0
  1  4  2  3
  4  5  1  0
  5  6  1  0
  3  7  2  0
  3  8  1  0
  6  9  1  0
  7 10  1  0
  8 11  1  0
 10 11  2  0
  9 12  2  0
  9 13  1  0
 13 14  2  0
 13 15  1  0
 14 16  1  0
 15 17  2  0
 16 18  2  0
 17 18  1  0
 18 19  1  0
 20 19  1  0
 20 21  1  0
 20 22  2  0
 20 23  2  0
M  END
>  <comRMSD>  (305) 
0.358777

>  <∆∆G>  (305) 
-5.239993

>  <N_constrained_atoms>  (305) 
22.0

>  <LE>  (305) 
-0.227826

>  <ref_pdb>  (305) 
x0104_0

>  <ref_mols>  (305) 
x0104_0_A_α,x0711_0_A_α

>  <%Rank>  (305) 
5.216198

>  <generation_date>  (305) 
nan

>  <method>  (305) 
nan

>  <submitter_email>  (305) 
nan

>  <original SMILES>  (305) 
CS(=O)(=O)Nc1ccc(C(=O)NCN=CNc2cccs2)cc1

>  <ref_url>  (305) 
nan

>  <submitter_name>  (305) 
nan

>  <submitter_institution>  (305) 
nan

$$$$
1hjz_A_0_A_α-5CB5_0_P_γ
     RDKit          3D

 21 22  0  0  0  0  0  0  0  0999 V2000
    0.9230   21.0320   -7.6550 O   0  0  0  0  0  0  0  0  0  0  0  0
    0.0110   19.9070   -7.7470 S   0  0  0  0  0  0  0  0  0  0  0  0
    0.2630   18.8010   -8.6560 O   0  0  0  0  0  0  0  0  0  0  0  0
   -0.2150   19.3210   -6.2250 O   0  0  0  0  0  0  0  0  0  0  0  0
   -1.6350   20.5080   -8.0620 C   0  0  0  0  0  0  0  0  0  0  0  0
   -1.9900   21.7590   -7.2930 C   0  0  0  0  0  0  0  0  0  0  0  0
   -0.5890   17.9620   -5.9690 C   0  0  0  0  0  0  0  0  0  0  0  0
    0.5970   17.1240   -5.4380 C   0  0  0  0  0  0  0  0  0  0  0  0
   -3.3660   22.2230   -7.5910 N   0  0  0  0  0  0  0  0  0  0  0  0
   -3.5570   22.6200   -8.9940 C   0  0  0  0  0  0  0  0  0  0  0  0
   -3.7440   23.3680   -6.7350 C   0  0  0  0  0  0  0  0  0  0  0  0
    0.2940   15.9090   -4.5200 C   0  0  1  0  0  0  0  0  0  0  0  0
   -4.9740   23.1060   -9.3100 C   0  0  0  0  0  0  0  0  0  0  0  0
   -5.1700   23.8380   -7.0420 C   0  0  0  0  0  0  0  0  0  0  0  0
   -0.9690   16.0500   -3.8750 O   0  0  0  0  0  0  0  0  0  0  0  0
    0.2250   14.4830   -5.0780 C   0  0  1  0  0  0  0  0  0  0  0  0
    1.4730   13.8770   -5.3640 O   0  0  0  0  0  0  0  0  0  0  0  0
   -5.3900   24.1480   -8.4290 O   0  0  0  0  0  0  0  0  0  0  0  0
   -1.2190   14.8100   -3.1930 C   0  0  0  0  0  0  0  0  0  0  0  0
   -0.4200   13.7410   -3.9140 C   0  0  1  0  0  0  0  0  0  0  0  0
   -1.2070   12.6600   -4.3640 O   0  0  0  0  0  0  0  0  0  0  0  0
  1  2  2  0
  2  3  2  0
  2  4  1  0
  2  5  1  0
  5  6  1  0
  4  7  1  0
  7  8  1  0
  6  9  1  0
  9 10  1  0
  9 11  1  0
 12  8  1  6
 10 13  1  0
 11 14  1  0
 12 15  1  0
 12 16  1  0
 16 17  1  1
 13 18  1  0
 14 18  1  0
 15 19  1  0
 16 20  1  0
 19 20  1  0
 20 21  1  6
M  END
>  <comRMSD>  (306) 
0.465733

>  <∆∆G>  (306) 
-11.249102

>  <N_constrained_atoms>  (306) 
20.0

>  <LE>  (306) 
-0.535672

>  <ref_pdb>  (306) 
x0104_0

>  <ref_mols>  (306) 


>  <%Rank>  (306) 
5.233356

>  <generation_date>  (306) 
nan

>  <method>  (306) 
nan

>  <submitter_email>  (306) 
nan

>  <original SMILES>  (306) 
O=S(=O)(CCN1CCOCC1)OCCC1OCC(O)C1O

>  <ref_url>  (306) 
nan

>  <submitter_name>  (306) 
nan

>  <submitter_institution>  (306) 
nan

$$$$
x0950_1_A_α-x0282_0_A_α
     RDKit          3D

 21 22  0  0  0  0  0  0  0  0999 V2000
    1.0110   13.9520   -5.0590 C   0  0  0  0  0  0  0  0  0  0  0  0
    1.2910   12.5130   -4.6740 C   0  0  2  0  0  0  0  0  0  0  0  0
    0.5620   11.6680   -5.5660 O   0  0  0  0  0  0  0  0  0  0  0  0
    0.9270   12.2140   -3.2200 C   0  0  0  0  0  0  0  0  0  0  0  0
    0.4340   11.1520   -2.8350 O   0  0  0  0  0  0  0  0  0  0  0  0
    1.2250   13.2730   -2.4360 O   0  0  0  0  0  0  0  0  0  0  0  0
    0.2660   14.3550   -2.4480 C   0  0  0  0  0  0  0  0  0  0  0  0
   -0.3430   14.4360   -1.0870 C   0  0  0  0  0  0  0  0  0  0  0  0
   -1.6630   14.3100   -0.9570 N   0  0  0  0  0  0  0  0  0  0  0  0
    0.4630   14.6210   -0.0300 C   0  0  0  0  0  0  0  0  0  0  0  0
   -0.1260   14.6530    1.2050 C   0  0  0  0  0  0  0  0  0  0  0  0
   -2.1760   14.3620    0.2760 C   0  0  0  0  0  0  0  0  0  0  0  0
   -3.5300   14.2360    0.3750 N   0  0  0  0  0  0  0  0  0  0  0  0
   -1.4400   14.5260    1.3960 N   0  0  0  0  0  0  0  0  0  0  0  0
   -3.9800   14.1960    1.7430 C   0  0  0  0  0  0  0  0  0  0  0  0
   -4.2640   15.0320   -0.6360 C   0  0  0  0  0  0  0  0  0  0  0  0
   -5.3020   14.9080    1.8070 C   0  0  0  0  0  0  0  0  0  0  0  0
   -5.8010   14.9150   -0.5810 C   0  0  0  0  0  0  0  0  0  0  0  0
   -6.2290   14.3220    0.7610 C   0  0  0  0  0  0  0  0  0  0  0  0
   -7.7070   14.4350    1.1280 C   0  0  0  0  0  0  0  0  0  0  0  0
   -8.5430   14.6150   -0.0020 O   0  0  0  0  0  0  0  0  0  0  0  0
  2  1  1  6
  2  3  1  0
  2  4  1  0
  4  5  2  0
  4  6  1  0
  6  7  1  0
  7  8  1  0
  8  9  2  0
  8 10  1  0
 10 11  2  0
  9 12  1  0
 12 13  1  0
 11 14  1  0
 12 14  2  0
 13 15  1  0
 13 16  1  0
 15 17  1  0
 16 18  1  0
 17 19  1  0
 18 19  1  0
 19 20  1  0
 20 21  1  0
M  END
>  <comRMSD>  (307) 
0.379524

>  <∆∆G>  (307) 
-7.612953

>  <N_constrained_atoms>  (307) 
20.0

>  <LE>  (307) 
-0.362522

>  <ref_pdb>  (307) 
x0104_0

>  <ref_mols>  (307) 
x0950_1_A_α,x0282_0_A_α

>  <%Rank>  (307) 
5.250515

>  <generation_date>  (307) 
nan

>  <method>  (307) 
nan

>  <submitter_email>  (307) 
nan

>  <original SMILES>  (307) 
C[C@H](O)C(=O)OCc1ccnc(N2CCC(CO)CC2)n1

>  <ref_url>  (307) 
nan

>  <submitter_name>  (307) 
nan

>  <submitter_institution>  (307) 
nan

$$$$
5CB5_0_E_γ-x0722_0_A_α
     RDKit          3D

 20 21  0  0  0  0  0  0  0  0999 V2000
   -0.6000   12.2870   -4.0160 O   0  0  0  0  0  0  0  0  0  0  0  0
   -1.0040   13.6530   -4.1190 C   0  0  1  0  0  0  0  0  0  0  0  0
   -0.8570   14.3900   -2.7670 C   0  0  2  0  0  0  0  0  0  0  0  0
   -0.0710   14.3860   -5.0510 C   0  0  2  0  0  0  0  0  0  0  0  0
    1.2670   13.9500   -4.8220 O   0  0  0  0  0  0  0  0  0  0  0  0
   -2.2550   14.4350   -2.1100 C   0  0  0  0  0  0  0  0  0  0  0  0
   -0.3490   15.7090   -3.1320 O   0  0  0  0  0  0  0  0  0  0  0  0
   -0.3210   15.8150   -4.5750 C   0  0  1  0  0  0  0  0  0  0  0  0
    0.7090   16.8490   -5.0080 C   0  0  0  0  0  0  0  0  0  0  0  0
   -2.4590   14.7260   -0.6380 C   0  0  0  0  0  0  0  0  0  0  0  0
   -3.6290   15.2340   -0.1060 C   0  0  0  0  0  0  0  0  0  0  0  0
   -1.6050   14.5720    0.4540 N   0  0  0  0  0  0  0  0  0  0  0  0
   -0.2440   14.0920    0.5350 C   0  0  0  0  0  0  0  0  0  0  0  0
   -4.8870   15.5990   -0.8400 C   0  0  0  0  0  0  0  0  0  0  0  0
   -2.1700   14.9410    1.6080 N   0  0  0  0  0  0  0  0  0  0  0  0
   -3.3900   15.3440    1.2710 C   0  0  0  0  0  0  0  0  0  0  0  0
   -4.3020   15.8400    2.3000 C   0  0  0  0  0  0  0  0  0  0  0  0
   -6.0680   14.7000   -0.5360 C   0  0  0  0  0  0  0  0  0  0  0  0
   -7.2320   15.0380   -0.7400 O   0  0  0  0  0  0  0  0  0  0  0  0
   -5.7900   13.4710   -0.0080 N   0  0  0  0  0  0  0  0  0  0  0  0
  2  1  1  1
  2  3  1  0
  2  4  1  0
  4  5  1  1
  3  6  1  6
  3  7  1  0
  4  8  1  0
  7  8  1  0
  8  9  1  1
  6 10  1  0
 10 11  2  0
 10 12  1  0
 12 13  1  0
 11 14  1  0
 12 15  1  0
 11 16  1  0
 15 16  2  0
 16 17  1  0
 14 18  1  0
 18 19  2  0
 18 20  1  0
M  END
>  <comRMSD>  (308) 
0.511138

>  <∆∆G>  (308) 
-7.511901

>  <N_constrained_atoms>  (308) 
20.0

>  <LE>  (308) 
-0.375595

>  <ref_pdb>  (308) 
x0104_0

>  <ref_mols>  (308) 
x0722_0_A_α

>  <%Rank>  (308) 
5.267673

>  <generation_date>  (308) 
nan

>  <method>  (308) 
nan

>  <submitter_email>  (308) 
nan

>  <original SMILES>  (308) 
Cc1nn(C)c(CC2OC(C)C(O)C2O)c1CC(N)=O

>  <ref_url>  (308) 
nan

>  <submitter_name>  (308) 
nan

>  <submitter_institution>  (308) 
nan

$$$$
x0469_0_B_α-x0600_0_A_α
     RDKit          3D

 31 32  0  0  0  0  0  0  0  0999 V2000
   -5.5350   40.2540    6.1380 N   0  0  0  0  0  0  0  0  0  0  0  0
   -5.3620   38.8780    5.6820 C   0  0  0  0  0  0  0  0  0  0  0  0
   -6.5490   38.0200    6.0350 C   0  0  0  0  0  0  0  0  0  0  0  0
   -6.4920   37.1030    7.0950 C   0  0  0  0  0  0  0  0  0  0  0  0
   -7.7330   38.1310    5.3020 C   0  0  0  0  0  0  0  0  0  0  0  0
   -8.8450   37.3450    5.6120 C   0  0  0  0  0  0  0  0  0  0  0  0
   -7.5920   36.2900    7.4440 C   0  0  0  0  0  0  0  0  0  0  0  0
  -10.0220   37.4340    4.9150 O   0  0  0  0  0  0  0  0  0  0  0  0
   -7.3780   35.4070    8.5530 N   0  0  0  0  0  0  0  0  0  0  0  0
   -8.7800   36.4210    6.6800 C   0  0  0  0  0  0  0  0  0  0  0  0
  -10.2490   38.6630    4.2290 C   0  0  0  0  0  0  0  0  0  0  0  0
   -9.8550   35.6270    7.0150 O   0  0  0  0  0  0  0  0  0  0  0  0
   -6.1440   34.6300    8.4270 C   0  0  0  0  0  0  0  0  0  0  0  0
   -8.5370   34.7720    9.2390 C   0  0  0  0  0  0  0  0  0  0  0  0
   -9.8630   34.3820    6.3190 C   0  0  0  0  0  0  0  0  0  0  0  0
   -8.3450   33.2410    9.3820 C   0  0  0  0  0  0  0  0  0  0  0  0
   -9.2140   32.4910   10.4190 C   0  0  0  0  0  0  0  0  0  0  0  0
   -9.0020   31.0330   10.3580 N   0  0  0  0  0  0  0  0  0  0  0  0
   -9.9350   30.1660   10.5880 C   0  0  0  0  0  0  0  0  0  0  0  0
  -11.1950   30.5000   10.9260 O   0  0  0  0  0  0  0  0  0  0  0  0
   -9.7440   28.6510   10.5080 C   0  0  0  0  0  0  0  0  0  0  0  0
  -10.8630   27.9090   10.9680 O   0  0  0  0  0  0  0  0  0  0  0  0
  -10.8720   27.5690   12.2870 C   0  0  0  0  0  0  0  0  0  0  0  0
  -11.9770   26.8390   12.7160 C   0  0  0  0  0  0  0  0  0  0  0  0
   -9.8890   27.8910   13.2060 C   0  0  0  0  0  0  0  0  0  0  0  0
  -12.1020   26.4250   14.0430 C   0  0  0  0  0  0  0  0  0  0  0  0
  -10.0000   27.4830   14.5390 C   0  0  0  0  0  0  0  0  0  0  0  0
  -11.1090   26.7480   14.9630 C   0  0  0  0  0  0  0  0  0  0  0  0
  -11.2590   26.3040   16.3800 C   0  0  0  0  0  0  0  0  0  0  0  0
  -12.4980   25.5520   16.7900 C   0  0  0  0  0  0  0  0  0  0  0  0
  -10.3750   26.5620   17.1920 O   0  0  0  0  0  0  0  0  0  0  0  0
  1  2  1  0
  2  3  1  0
  3  4  2  0
  3  5  1  0
  5  6  2  0
  4  7  1  0
  6  8  1  0
  7  9  1  0
  6 10  1  0
  7 10  2  0
  8 11  1  0
 10 12  1  0
  9 13  1  0
  9 14  1  0
 12 15  1  0
 14 16  1  0
 16 17  1  0
 17 18  1  0
 18 19  2  3
 19 20  1  0
 19 21  1  0
 21 22  1  0
 22 23  1  0
 23 24  2  0
 23 25  1  0
 24 26  1  0
 25 27  2  0
 26 28  2  0
 27 28  1  0
 28 29  1  0
 29 30  1  0
 29 31  2  0
M  END
>  <comRMSD>  (309) 
0.299833

>  <∆∆G>  (309) 
-7.389335

>  <N_constrained_atoms>  (309) 
28.0

>  <LE>  (309) 
-0.238366

>  <ref_pdb>  (309) 
x0104_0

>  <ref_mols>  (309) 
x0469_0_B_α,x0600_0_A_α

>  <%Rank>  (309) 
5.284832

>  <generation_date>  (309) 
nan

>  <method>  (309) 
nan

>  <submitter_email>  (309) 
nan

>  <original SMILES>  (309) 
COc1cc(CN)cc(N(C)CCCN=C(O)COc2ccc(C(C)=O)cc2)c1OC

>  <ref_url>  (309) 
nan

>  <submitter_name>  (309) 
nan

>  <submitter_institution>  (309) 
nan

$$$$
x0864_0_A_α-x1012_0_A_α
     RDKit          3D

 21 22  0  0  0  0  0  0  0  0999 V2000
    1.5200   11.6300   -7.1420 O   0  0  0  0  0  0  0  0  0  0  0  0
    0.5030   11.1690   -6.6600 C   0  0  0  0  0  0  0  0  0  0  0  0
   -0.0330   11.6420   -5.4890 N   0  0  0  0  0  0  0  0  0  0  0  0
   -0.1860   10.0440   -7.3150 C   0  0  0  0  0  0  0  0  0  0  0  0
    0.8350   12.5440   -4.7320 C   0  0  0  0  0  0  0  0  0  0  0  0
   -1.2280   11.1600   -4.9810 C   0  0  0  0  0  0  0  0  0  0  0  0
   -1.3180    9.5710   -6.7880 C   0  0  0  0  0  0  0  0  0  0  0  0
    0.6820   12.5330   -3.1840 C   0  0  0  0  0  0  0  0  0  0  0  0
   -2.2270    8.1450   -7.5720 Br  0  0  0  0  0  0  0  0  0  0  0  0
   -1.8730   10.1560   -5.5880 C   0  0  0  0  0  0  0  0  0  0  0  0
    0.0300   11.3460   -2.7500 O   0  0  0  0  0  0  0  0  0  0  0  0
    1.9280   12.5680   -2.5220 O   0  0  0  0  0  0  0  0  0  0  0  0
   -0.0210   13.8810   -2.8320 C   0  0  0  0  0  0  0  0  0  0  0  0
   -1.4680   14.0350   -3.3860 C   0  0  0  0  0  0  0  0  0  0  0  0
    0.8470   15.1150   -3.1920 C   0  0  0  0  0  0  0  0  0  0  0  0
   -1.6090   14.7180   -4.7590 C   0  0  0  0  0  0  0  0  0  0  0  0
    0.6750   15.6300   -4.6170 C   0  0  0  0  0  0  0  0  0  0  0  0
   -0.7310   15.8740   -4.9360 N   0  0  0  0  0  0  0  0  0  0  0  0
   -1.2880   17.1350   -4.7930 C   0  0  0  0  0  0  0  0  0  0  0  0
   -0.4170   18.1690   -4.7370 N   0  0  0  0  0  0  0  0  0  0  0  0
   -2.4830   17.3640   -4.7070 O   0  0  0  0  0  0  0  0  0  0  0  0
  1  2  2  0
  2  3  1  0
  2  4  1  0
  3  5  1  0
  3  6  1  0
  4  7  2  0
  5  8  1  0
  7  9  1  0
  6 10  2  0
  7 10  1  0
  8 11  1  0
  8 12  1  0
  8 13  1  0
 13 14  1  0
 13 15  1  0
 14 16  1  0
 15 17  1  0
 16 18  1  0
 17 18  1  0
 18 19  1  0
 19 20  1  0
 19 21  2  0
M  END
>  <comRMSD>  (310) 
0.509249

>  <∆∆G>  (310) 
-7.028937

>  <N_constrained_atoms>  (310) 
21.0

>  <LE>  (310) 
-0.334711

>  <ref_pdb>  (310) 
x0104_0

>  <ref_mols>  (310) 
x0864_0_A_α,x1012_0_A_α

>  <%Rank>  (310) 
5.30199

>  <generation_date>  (310) 
nan

>  <method>  (310) 
nan

>  <submitter_email>  (310) 
nan

>  <original SMILES>  (310) 
NC(=O)N1CCC(C(O)(O)Cn2ccc(Br)cc2=O)CC1

>  <ref_url>  (310) 
nan

>  <submitter_name>  (310) 
nan

>  <submitter_institution>  (310) 
nan

$$$$
5cb5_D_0_D_γ-6woj_B_0_B_β
     RDKit          3D

 16 16  0  0  0  0  0  0  0  0999 V2000
   -0.4060   12.5330   -4.0410 O   0  0  0  0  0  0  0  0  0  0  0  0
    0.2610   13.7710   -3.9940 C   0  0  2  0  0  0  0  0  0  0  0  0
   -0.1670   14.6850   -2.8580 C   0  0  0  0  0  0  0  0  0  0  0  0
   -0.0170   14.5940   -5.2300 C   0  0  2  0  0  0  0  0  0  0  0  0
    1.2170   14.6010   -5.9200 O   0  0  0  0  0  0  0  0  0  0  0  0
    0.1200   16.0030   -3.3380 O   0  0  0  0  0  0  0  0  0  0  0  0
   -0.4020   15.9680   -4.6740 C   0  0  1  0  0  0  0  0  0  0  0  0
    0.0730   17.1980   -5.4220 C   0  0  0  0  0  0  0  0  0  0  0  0
   -1.2840   18.3280   -5.7250 P   0  0  2  0  0  0  0  0  0  0  0  0
   -0.7670   19.6310   -6.4250 O   0  0  0  0  0  0  0  0  0  0  0  0
   -1.8920   18.6790   -4.4320 O   0  0  0  0  0  0  0  0  0  0  0  0
   -2.3560   17.6550   -6.7160 O   0  0  0  0  0  0  0  0  0  0  0  0
   -0.0710   20.0350   -7.7550 P   0  0  0  0  0  0  0  0  0  0  0  0
   -1.2810   20.7290   -8.5140 O   0  0  0  0  0  0  0  0  0  0  0  0
    1.1410   20.8970   -7.6410 O   0  0  0  0  0  0  0  0  0  0  0  0
    0.0580   18.7200   -8.6670 O   0  0  0  0  0  0  0  0  0  0  0  0
  2  1  1  6
  2  3  1  0
  2  4  1  0
  4  5  1  6
  3  6  1  0
  4  7  1  0
  6  7  1  0
  7  8  1  6
  8  9  1  0
  9 10  1  0
  9 11  2  0
  9 12  1  6
 10 13  1  0
 13 14  1  0
 13 15  2  0
 13 16  1  0
M  END
>  <comRMSD>  (311) 
0.565529

>  <∆∆G>  (311) 
-10.383091

>  <N_constrained_atoms>  (311) 
16.0

>  <LE>  (311) 
-0.648943

>  <ref_pdb>  (311) 
x0104_0

>  <ref_mols>  (311) 


>  <%Rank>  (311) 
5.319149

>  <generation_date>  (311) 
nan

>  <method>  (311) 
nan

>  <submitter_email>  (311) 
nan

>  <original SMILES>  (311) 
O=P(O)(O)OP(=O)(O)CC1OCC(O)C1O

>  <ref_url>  (311) 
nan

>  <submitter_name>  (311) 
nan

>  <submitter_institution>  (311) 
nan

$$$$
6woj_C_0_C_α-6WOJ_0_C_β
     RDKit          3D

 17 17  0  0  0  0  0  0  0  0999 V2000
   -1.7790   21.5460   -7.2010 C   0  0  0  0  0  0  0  0  0  0  0  0
   -0.5300   20.4500   -7.7760 P   0  0  0  0  0  0  0  0  0  0  0  0
   -0.4120   19.6560   -6.4560 O   0  0  0  0  0  0  0  0  0  0  0  0
   -2.9710   21.9450   -8.0580 C   0  0  1  0  0  0  0  0  0  0  0  0
    1.0160   20.9020   -7.6530 O   0  0  0  0  0  0  0  0  0  0  0  0
   -0.8390   18.9250   -8.4740 O   0  0  0  0  0  0  0  0  0  0  0  0
   -4.1050   21.2360   -7.7040 O   0  0  0  0  0  0  0  0  0  0  0  0
   -3.3950   23.4090   -7.8380 C   0  0  1  0  0  0  0  0  0  0  0  0
   -4.2540   23.8330   -8.8470 O   0  0  0  0  0  0  0  0  0  0  0  0
   -1.1500   18.2050   -6.1230 P   0  0  0  0  0  0  0  0  0  0  0  0
   -4.9090   21.9780   -6.8560 C   0  0  2  0  0  0  0  0  0  0  0  0
   -4.2330   23.2610   -6.5720 C   0  0  2  0  0  0  0  0  0  0  0  0
   -5.1950   21.3790   -5.6370 O   0  0  0  0  0  0  0  0  0  0  0  0
   -5.1790   24.3130   -6.5120 O   0  0  0  0  0  0  0  0  0  0  0  0
   -0.2900   16.9940   -5.3360 O   0  0  0  0  0  0  0  0  0  0  0  0
   -1.5930   18.7240   -4.7500 O   0  0  0  0  0  0  0  0  0  0  0  0
   -2.5870   17.8260   -6.7260 O   0  0  0  0  0  0  0  0  0  0  0  0
  1  2  1  0
  2  3  1  0
  4  1  1  1
  2  5  1  0
  2  6  1  0
  4  7  1  0
  4  8  1  0
  8  9  1  6
  3 10  1  0
  7 11  1  0
  8 12  1  0
 11 12  1  0
 11 13  1  1
 12 14  1  6
 10 15  1  0
 10 16  1  0
 10 17  1  0
M  CHG  2   5  -1  16  -1
M  END
>  <comRMSD>  (312) 
0.606086

>  <∆∆G>  (312) 
-11.64206

>  <N_constrained_atoms>  (312) 
17.0

>  <LE>  (312) 
-0.684827

>  <ref_pdb>  (312) 
x0104_0

>  <ref_mols>  (312) 


>  <%Rank>  (312) 
5.336307

>  <generation_date>  (312) 
nan

>  <method>  (312) 
nan

>  <submitter_email>  (312) 
nan

>  <original SMILES>  (312) 
[O-][PH](O)(O)O[PH]([O-])(O)CC1OC(O)C(O)C1O

>  <ref_url>  (312) 
nan

>  <submitter_name>  (312) 
nan

>  <submitter_institution>  (312) 
nan

$$$$
x0465_0_A_α-x0849_0_A_α
     RDKit          3D

 25 27  0  0  0  0  0  0  0  0999 V2000
    1.8720   13.3130   -5.2290 C   0  0  0  0  0  0  0  0  0  0  0  0
    0.6040   12.6090   -4.7860 C   0  0  1  0  0  0  0  0  0  0  0  0
    0.6090   11.3680   -5.4610 O   0  0  0  0  0  0  0  0  0  0  0  0
    0.7030   12.5340   -3.2730 C   0  0  0  0  0  0  0  0  0  0  0  0
    0.8470   13.6070   -2.5830 N   0  0  0  0  0  0  0  0  0  0  0  0
    0.6280   11.2660   -2.7910 O   0  0  0  0  0  0  0  0  0  0  0  0
   -0.5440   10.6880   -5.7160 C   0  0  0  0  0  0  0  0  0  0  0  0
    0.9570   13.5720   -1.1550 C   0  0  0  0  0  0  0  0  0  0  0  0
   -0.7010    9.6410   -6.6220 C   0  0  0  0  0  0  0  0  0  0  0  0
   -1.6540   11.1070   -4.9760 C   0  0  0  0  0  0  0  0  0  0  0  0
    0.3190    9.1900   -7.3640 F   0  0  0  0  0  0  0  0  0  0  0  0
   -1.9350    9.0190   -6.7920 C   0  0  0  0  0  0  0  0  0  0  0  0
   -2.8970   10.4870   -5.1430 C   0  0  0  0  0  0  0  0  0  0  0  0
   -0.2180   14.0350   -0.3690 C   0  0  0  0  0  0  0  0  0  0  0  0
   -3.0340    9.4410   -6.0540 C   0  0  0  0  0  0  0  0  0  0  0  0
   -0.2580   14.0970    1.0210 C   0  0  0  0  0  0  0  0  0  0  0  0
   -1.3540   14.4120   -1.0250 C   0  0  0  0  0  0  0  0  0  0  0  0
   -2.4720   14.8130   -0.3020 C   0  0  0  0  0  0  0  0  0  0  0  0
   -1.3090   14.4890    1.7400 N   0  0  0  0  0  0  0  0  0  0  0  0
   -2.3960   14.8310    1.0900 C   0  0  0  0  0  0  0  0  0  0  0  0
   -3.6700   15.1950   -0.8980 C   0  0  0  0  0  0  0  0  0  0  0  0
   -3.8540   15.1910   -2.7840 Br  0  0  0  0  0  0  0  0  0  0  0  0
   -3.4150   15.1880    1.8250 N   0  0  0  0  0  0  0  0  0  0  0  0
   -4.7450   15.5740   -0.1220 C   0  0  0  0  0  0  0  0  0  0  0  0
   -4.5520   15.5440    1.2390 C   0  0  0  0  0  0  0  0  0  0  0  0
  2  1  1  6
  2  3  1  0
  2  4  1  0
  4  5  2  3
  4  6  1  0
  3  7  1  0
  5  8  1  0
  7  9  2  0
  7 10  1  0
  9 11  1  0
  9 12  1  0
 10 13  2  0
  8 14  1  0
 12 15  2  0
 13 15  1  0
 14 16  2  0
 14 17  1  0
 17 18  2  0
 16 19  1  0
 18 20  1  0
 19 20  2  0
 18 21  1  0
 21 22  1  0
 20 23  1  0
 21 24  2  0
 23 25  2  0
 24 25  1  0
M  END
>  <comRMSD>  (313) 
0.439939

>  <∆∆G>  (313) 
-7.559372

>  <N_constrained_atoms>  (313) 
24.0

>  <LE>  (313) 
-0.302375

>  <ref_pdb>  (313) 
x0104_0

>  <ref_mols>  (313) 
x0465_0_A_α,x0849_0_A_α

>  <%Rank>  (313) 
5.353466

>  <generation_date>  (313) 
nan

>  <method>  (313) 
nan

>  <submitter_email>  (313) 
nan

>  <original SMILES>  (313) 
C[C@@H](Oc1ccccc1F)C(O)=NCc1cnc2nccc(Br)c2c1

>  <ref_url>  (313) 
nan

>  <submitter_name>  (313) 
nan

>  <submitter_institution>  (313) 
nan

$$$$
x0471_0_A_α-x0766_0_A_α
     RDKit          3D

 27 30  0  0  0  0  0  0  0  0999 V2000
   -8.5070   14.1590    2.7020 N   0  0  0  0  0  0  0  0  0  0  0  0
   -8.8700   14.9950    3.7250 C   0  0  0  0  0  0  0  0  0  0  0  0
   -9.3530   16.1080    3.5260 O   0  0  0  0  0  0  0  0  0  0  0  0
   -8.6340   14.5960    1.3250 C   0  0  0  0  0  0  0  0  0  0  0  0
   -8.6560   14.4500    5.1310 C   0  0  0  0  0  0  0  0  0  0  0  0
   -7.2750   14.6800    0.6500 C   0  0  0  0  0  0  0  0  0  0  0  0
   -9.8840   13.6770    5.6100 C   0  0  0  0  0  0  0  0  0  0  0  0
   -8.2770   15.5650    6.1020 C   0  0  0  0  0  0  0  0  0  0  0  0
   -7.1180   14.8490   -0.6360 N   0  0  0  0  0  0  0  0  0  0  0  0
   -6.1010   14.5890    1.4140 N   0  0  0  0  0  0  0  0  0  0  0  0
   -5.1470   14.6910    0.5280 C   0  0  0  0  0  0  0  0  0  0  0  0
   -5.7590   14.8420   -0.8050 C   0  0  0  0  0  0  0  0  0  0  0  0
   -5.0210   14.9330   -1.9170 C   0  0  0  0  0  0  0  0  0  0  0  0
   -3.6690   14.6620    0.6840 C   0  0  0  0  0  0  0  0  0  0  0  0
   -3.5900   14.8580   -1.7630 C   0  0  0  0  0  0  0  0  0  0  0  0
   -2.9480   14.7350   -0.4610 C   0  0  0  0  0  0  0  0  0  0  0  0
   -2.6000   14.8610   -2.6910 C   0  0  0  0  0  0  0  0  0  0  0  0
   -1.5080   14.7020   -0.6790 C   0  0  0  0  0  0  0  0  0  0  0  0
   -1.2810   14.7760   -2.0200 C   0  0  0  0  0  0  0  0  0  0  0  0
    0.0630   14.8220   -2.7780 C   0  0  1  0  0  0  0  0  0  0  0  0
    0.9010   13.5670   -3.1740 C   0  0  1  0  0  0  0  0  0  0  0  0
    0.0030   15.6140   -4.0920 C   0  0  0  0  0  0  0  0  0  0  0  0
    0.5840   12.3370   -2.4090 C   0  0  0  0  0  0  0  0  0  0  0  0
    0.9890   13.5350   -4.6910 C   0  0  0  0  0  0  0  0  0  0  0  0
    1.1160   15.0210   -4.9460 C   0  0  0  0  0  0  0  0  0  0  0  0
    0.6110   12.3100   -1.2050 O   0  0  0  0  0  0  0  0  0  0  0  0
    0.2720   11.2440   -3.1280 O   0  0  0  0  0  0  0  0  0  0  0  0
  1  2  1  0
  2  3  2  0
  1  4  1  0
  2  5  1  0
  4  6  1  0
  5  7  1  0
  5  8  1  0
  6  9  2  0
  6 10  1  0
 10 11  2  0
  9 12  1  0
 11 12  1  0
 12 13  2  0
 11 14  1  0
 13 15  1  0
 14 16  2  0
 15 16  1  0
 15 17  2  0
 16 18  1  0
 17 19  1  0
 18 19  2  0
 20 19  1  6
 20 21  1  0
 20 22  1  0
 21 23  1  6
 21 24  1  0
 22 25  1  0
 24 25  1  0
 23 26  2  0
 23 27  1  0
M  END
>  <comRMSD>  (314) 
0.607547

>  <∆∆G>  (314) 
-9.236089

>  <N_constrained_atoms>  (314) 
27.0

>  <LE>  (314) 
-0.342077

>  <ref_pdb>  (314) 
x0104_0

>  <ref_mols>  (314) 
x0471_0_A_α,x0766_0_A_α

>  <%Rank>  (314) 
5.370625

>  <generation_date>  (314) 
nan

>  <method>  (314) 
nan

>  <submitter_email>  (314) 
nan

>  <original SMILES>  (314) 
CC(C)C(=O)NCC1=Nc2cc3c(cc2=N1)C=C(C1CCCC1C(=O)O)C=3

>  <ref_url>  (314) 
nan

>  <submitter_name>  (314) 
nan

>  <submitter_institution>  (314) 
nan

$$$$
x0950_0_A_α-x0724_0_A_α
     RDKit          3D

 22 23  0  0  0  0  0  0  0  0999 V2000
    2.7900   13.0040   -4.2100 C   0  0  0  0  0  0  0  0  0  0  0  0
    1.2920   12.7870   -4.3040 C   0  0  1  0  0  0  0  0  0  0  0  0
    0.9760   12.0710   -5.4960 O   0  0  0  0  0  0  0  0  0  0  0  0
    0.8150   12.1110   -3.0140 C   0  0  0  0  0  0  0  0  0  0  0  0
    0.3930   10.9640   -2.9270 O   0  0  0  0  0  0  0  0  0  0  0  0
    0.9360   12.9850   -1.9750 O   0  0  0  0  0  0  0  0  0  0  0  0
   -0.2630   13.2810   -1.2380 C   0  0  0  0  0  0  0  0  0  0  0  0
   -1.0790   14.4340   -1.8390 C   0  0  0  0  0  0  0  0  0  0  0  0
   -2.4490   14.5210   -1.1970 C   0  0  0  0  0  0  0  0  0  0  0  0
   -2.5470   14.6630    0.1930 C   0  0  0  0  0  0  0  0  0  0  0  0
   -3.6290   14.4520   -1.9570 C   0  0  0  0  0  0  0  0  0  0  0  0
   -3.7910   14.7240    0.8150 C   0  0  0  0  0  0  0  0  0  0  0  0
   -4.8830   14.5130   -1.3350 C   0  0  0  0  0  0  0  0  0  0  0  0
   -4.9670   14.6440    0.0590 C   0  0  0  0  0  0  0  0  0  0  0  0
   -6.2150   14.6970    0.7380 N   0  0  0  0  0  0  0  0  0  0  0  0
   -7.4040   14.5990    0.0820 N   0  0  0  0  0  0  0  0  0  0  0  0
   -6.4120   14.8460    2.0930 C   0  0  0  0  0  0  0  0  0  0  0  0
   -7.7730   14.8580    2.3300 C   0  0  0  0  0  0  0  0  0  0  0  0
   -8.3270   14.6950    1.0430 C   0  0  0  0  0  0  0  0  0  0  0  0
   -8.4820   15.0090    3.6300 C   0  0  0  0  0  0  0  0  0  0  0  0
   -8.2720   13.8020    4.4160 N   0  0  0  0  0  0  0  0  0  0  0  0
   -8.7260   13.9810    5.7870 C   0  0  0  0  0  0  0  0  0  0  0  0
  2  1  1  1
  2  3  1  0
  2  4  1  0
  4  5  2  0
  4  6  1  0
  6  7  1  0
  7  8  1  0
  8  9  1  0
  9 10  2  0
  9 11  1  0
 10 12  1  0
 11 13  2  0
 12 14  2  0
 13 14  1  0
 14 15  1  0
 15 16  1  0
 15 17  1  0
 17 18  2  0
 16 19  2  0
 18 19  1  0
 18 20  1  0
 20 21  1  0
 21 22  1  0
M  END
>  <comRMSD>  (315) 
0.242943

>  <∆∆G>  (315) 
-7.383146

>  <N_constrained_atoms>  (315) 
20.0

>  <LE>  (315) 
-0.335598

>  <ref_pdb>  (315) 
x0104_0

>  <ref_mols>  (315) 
x0950_0_A_α,x0724_0_A_α

>  <%Rank>  (315) 
5.387783

>  <generation_date>  (315) 
nan

>  <method>  (315) 
nan

>  <submitter_email>  (315) 
nan

>  <original SMILES>  (315) 
CNCc1cnn(-c2ccc(CCOC(=O)[C@@H](C)O)cc2)c1

>  <ref_url>  (315) 
nan

>  <submitter_name>  (315) 
nan

>  <submitter_institution>  (315) 
nan

$$$$
x1012_0_A_α-x0592_0_A_α
     RDKit          3D

 24 25  0  0  0  0  0  0  0  0999 V2000
   -0.2500   18.0980   -5.1190 N   0  0  0  0  0  0  0  0  0  0  0  0
   -1.2590   17.2380   -4.8840 C   0  0  0  0  0  0  0  0  0  0  0  0
   -2.4040   17.6550   -4.8340 O   0  0  0  0  0  0  0  0  0  0  0  0
   -0.9180   15.9230   -4.6990 N   0  0  0  0  0  0  0  0  0  0  0  0
   -1.7430   15.0330   -3.8670 C   0  0  0  0  0  0  0  0  0  0  0  0
    0.5300   15.6200   -4.9160 C   0  0  0  0  0  0  0  0  0  0  0  0
   -0.8300   14.4750   -2.8000 C   0  0  1  0  0  0  0  0  0  0  0  0
    1.1580   14.4150   -4.1860 C   0  0  0  0  0  0  0  0  0  0  0  0
   -1.4400   13.8860   -1.5110 C   0  0  0  0  0  0  0  0  0  0  0  0
    0.1090   13.5270   -3.5230 C   0  0  1  0  0  0  0  0  0  0  0  0
    0.7130   12.5360   -2.5580 C   0  0  0  0  0  0  0  0  0  0  0  0
   -2.8570   14.1690   -1.3600 N   0  0  0  0  0  0  0  0  0  0  0  0
    0.3570   11.2460   -2.7620 O   0  0  0  0  0  0  0  0  0  0  0  0
    1.4520   12.8100   -1.6510 O   0  0  0  0  0  0  0  0  0  0  0  0
   -3.3420   14.5820   -0.2400 C   0  0  0  0  0  0  0  0  0  0  0  0
   -2.7350   14.8610    0.9630 N   0  0  0  0  0  0  0  0  0  0  0  0
   -4.7760   14.7390   -0.2520 C   0  0  0  0  0  0  0  0  0  0  0  0
   -5.5900   15.2220   -1.3100 C   0  0  0  0  0  0  0  0  0  0  0  0
   -5.6840   14.4430    0.7480 C   0  0  0  0  0  0  0  0  0  0  0  0
   -6.8920   15.2240   -1.0060 N   0  0  0  0  0  0  0  0  0  0  0  0
   -6.9200   14.7440    0.2510 N   0  0  0  0  0  0  0  0  0  0  0  0
   -8.1930   14.5920    0.9380 C   0  0  0  0  0  0  0  0  0  0  0  0
   -8.0080   14.0670    2.3620 C   0  0  0  0  0  0  0  0  0  0  0  0
   -7.3090   14.9930    3.1870 O   0  0  0  0  0  0  0  0  0  0  0  0
  1  2  1  0
  2  3  2  0
  2  4  1  0
  4  5  1  0
  4  6  1  0
  5  7  1  0
  6  8  1  0
  7  9  1  1
  7 10  1  0
  8 10  1  0
 10 11  1  1
  9 12  1  0
 11 13  1  0
 11 14  2  0
 12 15  2  3
 15 16  1  0
 15 17  1  0
 17 18  1  0
 17 19  2  0
 18 20  2  0
 19 21  1  0
 20 21  1  0
 21 22  1  0
 22 23  1  0
 23 24  1  0
M  END
>  <comRMSD>  (316) 
0.446638

>  <∆∆G>  (316) 
-8.530905

>  <N_constrained_atoms>  (316) 
23.0

>  <LE>  (316) 
-0.355454

>  <ref_pdb>  (316) 
x0104_0

>  <ref_mols>  (316) 
x1012_0_A_α,x0592_0_A_α

>  <%Rank>  (316) 
5.404942

>  <generation_date>  (316) 
nan

>  <method>  (316) 
nan

>  <submitter_email>  (316) 
nan

>  <original SMILES>  (316) 
NC(=O)N1CCC(C(=O)O)C(CN=C(N)c2cnn(CCO)c2)C1

>  <ref_url>  (316) 
nan

>  <submitter_name>  (316) 
nan

>  <submitter_institution>  (316) 
nan

$$$$
x0805_0_A_α-x0253_0_A_α
     RDKit          3D

 23 24  0  0  0  0  0  0  0  0999 V2000
   -3.7780   15.6840   -0.1620 O   0  0  0  0  0  0  0  0  0  0  0  0
   -4.3760   15.1270    1.0020 C   0  0  0  0  0  0  0  0  0  0  0  0
   -3.3340   14.8410   -1.1400 C   0  0  0  0  0  0  0  0  0  0  0  0
   -4.2850   14.0330   -1.7570 C   0  0  0  0  0  0  0  0  0  0  0  0
   -2.0210   14.7470   -1.5480 C   0  0  0  0  0  0  0  0  0  0  0  0
   -1.6220   13.8860   -2.5560 C   0  0  0  0  0  0  0  0  0  0  0  0
   -3.9110   13.1460   -2.7770 C   0  0  0  0  0  0  0  0  0  0  0  0
   -0.1570   13.9280   -2.8780 C   0  0  0  0  0  0  0  0  0  0  0  0
   -2.5730   13.0700   -3.1850 C   0  0  0  0  0  0  0  0  0  0  0  0
    0.6470   12.6360   -3.0630 C   0  0  0  0  0  0  0  0  0  0  0  0
    1.7280   12.6200   -2.1500 O   0  0  0  0  0  0  0  0  0  0  0  0
   -0.1220   11.4780   -2.7360 O   0  0  0  0  0  0  0  0  0  0  0  0
    1.2360   12.6010   -4.4800 C   0  0  0  0  0  0  0  0  0  0  0  0
    0.4580   11.8900   -5.4720 N   0  0  0  0  0  0  0  0  0  0  0  0
    1.1130   11.6170   -6.6180 C   0  0  0  0  0  0  0  0  0  0  0  0
    2.2080   12.1020   -6.7520 O   0  0  0  0  0  0  0  0  0  0  0  0
    0.4730   10.7100   -7.6100 C   0  0  0  0  0  0  0  0  0  0  0  0
   -0.5060    9.7950   -7.2040 C   0  0  0  0  0  0  0  0  0  0  0  0
    0.8400   10.7560   -8.9630 C   0  0  0  0  0  0  0  0  0  0  0  0
   -1.1110    8.9420   -8.1320 C   0  0  0  0  0  0  0  0  0  0  0  0
    0.2430    9.9090   -9.8910 C   0  0  0  0  0  0  0  0  0  0  0  0
   -2.1610    7.9680   -7.6800 C   0  0  0  0  0  0  0  0  0  0  0  0
   -0.7320    9.0040   -9.4760 C   0  0  0  0  0  0  0  0  0  0  0  0
  1  2  1  0
  1  3  1  0
  3  4  2  0
  3  5  1  0
  5  6  2  0
  4  7  1  0
  6  8  1  0
  6  9  1  0
  7  9  2  0
  8 10  1  0
 10 11  1  0
 10 12  1  0
 10 13  1  0
 13 14  1  0
 14 15  1  0
 15 16  2  0
 15 17  1  0
 17 18  2  0
 17 19  1  0
 18 20  1  0
 19 21  2  0
 20 22  1  0
 20 23  2  0
 21 23  1  0
M  END
>  <comRMSD>  (317) 
0.362728

>  <∆∆G>  (317) 
-5.304312

>  <N_constrained_atoms>  (317) 
22.0

>  <LE>  (317) 
-0.230622

>  <ref_pdb>  (317) 
x0104_0

>  <ref_mols>  (317) 
x0805_0_A_α,x0253_0_A_α

>  <%Rank>  (317) 
5.4221

>  <generation_date>  (317) 
nan

>  <method>  (317) 
nan

>  <submitter_email>  (317) 
nan

>  <original SMILES>  (317) 
COc1cccc(CC(O)(O)CNC(=O)c2cccc(C)c2)c1

>  <ref_url>  (317) 
nan

>  <submitter_name>  (317) 
nan

>  <submitter_institution>  (317) 
nan

$$$$
x0438_0_A_α-x0969_0_A_α
     RDKit          3D

 15 16  0  0  0  0  0  0  0  0999 V2000
   -8.3890   15.5950    3.7830 C   0  0  0  0  0  0  0  0  0  0  0  0
   -9.5300   15.4230    2.4220 S   0  0  0  0  0  0  0  0  0  0  0  0
  -10.7600   14.8920    2.9810 O   0  0  0  0  0  0  0  0  0  0  0  0
   -8.9080   14.2070    1.2650 C   0  0  0  0  0  0  0  0  0  0  0  0
   -9.5900   16.6730    1.7070 O   0  0  0  0  0  0  0  0  0  0  0  0
   -7.5510   14.4700    0.7130 C   0  0  0  0  0  0  0  0  0  0  0  0
   -7.2140   14.4400   -0.5640 N   0  0  0  0  0  0  0  0  0  0  0  0
   -6.4620   14.7700    1.4710 N   0  0  0  0  0  0  0  0  0  0  0  0
   -6.4550   14.9220    2.8490 N   0  0  0  0  0  0  0  0  0  0  0  0
   -5.3650   14.9050    0.6750 C   0  0  0  0  0  0  0  0  0  0  0  0
   -5.8620   14.7100   -0.6010 C   0  0  0  0  0  0  0  0  0  0  0  0
   -4.9910   14.8010   -1.6970 C   0  0  0  0  0  0  0  0  0  0  0  0
   -4.0250   15.1730    0.9480 C   0  0  0  0  0  0  0  0  0  0  0  0
   -3.6390   15.0680   -1.4500 C   0  0  0  0  0  0  0  0  0  0  0  0
   -3.1730   15.2410   -0.1450 C   0  0  0  0  0  0  0  0  0  0  0  0
  2  1  1  0
  2  3  2  0
  2  4  1  0
  2  5  2  0
  4  6  1  0
  6  7  2  0
  6  8  1  0
  8  9  1  0
  8 10  1  0
  7 11  1  0
 10 11  2  0
 11 12  1  0
 10 13  1  0
 12 14  2  0
 13 15  2  0
 14 15  1  0
M  END
>  <comRMSD>  (318) 
0.351135

>  <∆∆G>  (318) 
-3.91873

>  <N_constrained_atoms>  (318) 
15.0

>  <LE>  (318) 
-0.261249

>  <ref_pdb>  (318) 
x0104_0

>  <ref_mols>  (318) 
x0438_0_A_α,x0969_0_A_α

>  <%Rank>  (318) 
5.439259

>  <generation_date>  (318) 
nan

>  <method>  (318) 
nan

>  <submitter_email>  (318) 
nan

>  <original SMILES>  (318) 
CS(=O)(=O)Cc1nc2ccccc2n1N

>  <ref_url>  (318) 
nan

>  <submitter_name>  (318) 
nan

>  <submitter_institution>  (318) 
nan

$$$$
5cb5_L_0_L_β-5CB5_0_M_γ
     RDKit          3D

 16 16  0  0  0  0  0  0  0  0999 V2000
   -1.5480   20.4590   -8.4030 O   0  0  0  0  0  0  0  0  0  0  0  0
   -0.1870   19.9100   -7.7880 P   0  0  0  0  0  0  0  0  0  0  0  0
   -0.5530   19.3680   -6.3600 O   0  0  0  0  0  0  0  0  0  0  0  0
    0.8980   20.9160   -7.8030 O   0  0  0  0  0  0  0  0  0  0  0  0
    0.0840   18.6320   -8.7260 O   0  0  0  0  0  0  0  0  0  0  0  0
   -1.4160   18.0830   -6.0670 P   0  0  2  0  0  0  0  0  0  0  0  0
   -0.3770   16.8870   -5.8130 O   0  0  0  0  0  0  0  0  0  0  0  0
   -2.5610   17.8340   -6.9730 O   0  0  0  0  0  0  0  0  0  0  0  0
   -1.8640   18.4020   -4.5750 O   0  0  0  0  0  0  0  0  0  0  0  0
   -0.7790   15.8760   -4.9010 C   0  0  2  0  0  0  0  0  0  0  0  0
   -0.2450   16.0520   -3.5890 O   0  0  0  0  0  0  0  0  0  0  0  0
   -0.3920   14.4250   -5.2380 C   0  0  1  0  0  0  0  0  0  0  0  0
    1.0200   14.1650   -5.3360 O   0  0  0  0  0  0  0  0  0  0  0  0
   -0.4700   14.8020   -2.9100 C   0  0  0  0  0  0  0  0  0  0  0  0
   -0.8990   13.7830   -3.9680 C   0  0  2  0  0  0  0  0  0  0  0  0
   -0.3360   12.4970   -3.7770 O   0  0  0  0  0  0  0  0  0  0  0  0
  1  2  1  0
  2  3  1  0
  2  4  2  0
  2  5  1  0
  3  6  1  0
  6  7  1  0
  6  8  2  0
  6  9  1  1
 10  7  1  6
 10 11  1  0
 10 12  1  0
 12 13  1  1
 11 14  1  0
 12 15  1  0
 14 15  1  0
 15 16  1  1
M  END
>  <comRMSD>  (319) 
0.533027

>  <∆∆G>  (319) 
-9.225987

>  <N_constrained_atoms>  (319) 
16.0

>  <LE>  (319) 
-0.576624

>  <ref_pdb>  (319) 
x0104_0

>  <ref_mols>  (319) 


>  <%Rank>  (319) 
5.456417

>  <generation_date>  (319) 
nan

>  <method>  (319) 
nan

>  <submitter_email>  (319) 
nan

>  <original SMILES>  (319) 
O=P(O)(O)OP(=O)(O)OC1OCC(O)C1O

>  <ref_url>  (319) 
nan

>  <submitter_name>  (319) 
nan

>  <submitter_institution>  (319) 
nan

$$$$
6woj_B_0_B_α-6WOJ_0_C_β
     RDKit          3D

 17 17  0  0  0  0  0  0  0  0999 V2000
   -1.8490   21.5350   -7.2030 C   0  0  0  0  0  0  0  0  0  0  0  0
   -0.5770   20.4550   -7.7780 P   0  0  0  0  0  0  0  0  0  0  0  0
   -0.4460   19.6710   -6.4510 O   0  0  0  0  0  0  0  0  0  0  0  0
   -3.0230   21.9490   -8.0870 C   0  0  1  0  0  0  0  0  0  0  0  0
    0.9660   20.9210   -7.6630 O   0  0  0  0  0  0  0  0  0  0  0  0
   -0.8630   18.9220   -8.4660 O   0  0  0  0  0  0  0  0  0  0  0  0
   -4.1780   21.2570   -7.7620 O   0  0  0  0  0  0  0  0  0  0  0  0
   -3.4370   23.4130   -7.8610 C   0  0  1  0  0  0  0  0  0  0  0  0
   -4.2940   23.8500   -8.8670 O   0  0  0  0  0  0  0  0  0  0  0  0
   -1.1650   18.2090   -6.1160 P   0  0  0  0  0  0  0  0  0  0  0  0
   -4.9680   21.9920   -6.8970 C   0  0  2  0  0  0  0  0  0  0  0  0
   -4.2660   23.2620   -6.5950 C   0  0  2  0  0  0  0  0  0  0  0  0
   -5.2500   21.3840   -5.6830 O   0  0  0  0  0  0  0  0  0  0  0  0
   -5.1970   24.3220   -6.5010 O   0  0  0  0  0  0  0  0  0  0  0  0
   -0.2860   17.0090   -5.3310 O   0  0  0  0  0  0  0  0  0  0  0  0
   -1.6070   18.7240   -4.7420 O   0  0  0  0  0  0  0  0  0  0  0  0
   -2.5960   17.8130   -6.7160 O   0  0  0  0  0  0  0  0  0  0  0  0
  1  2  1  0
  2  3  1  0
  4  1  1  1
  2  5  1  0
  2  6  1  0
  4  7  1  0
  4  8  1  0
  8  9  1  6
  3 10  1  0
  7 11  1  0
  8 12  1  0
 11 12  1  0
 11 13  1  1
 12 14  1  6
 10 15  1  0
 10 16  1  0
 10 17  1  0
M  CHG  2   5  -1  16  -1
M  END
>  <comRMSD>  (320) 
0.613848

>  <∆∆G>  (320) 
-11.780644

>  <N_constrained_atoms>  (320) 
17.0

>  <LE>  (320) 
-0.692979

>  <ref_pdb>  (320) 
x0104_0

>  <ref_mols>  (320) 


>  <%Rank>  (320) 
5.473576

>  <generation_date>  (320) 
nan

>  <method>  (320) 
nan

>  <submitter_email>  (320) 
nan

>  <original SMILES>  (320) 
[O-][PH](O)(O)O[PH]([O-])(O)CC1OC(O)C(O)C1O

>  <ref_url>  (320) 
nan

>  <submitter_name>  (320) 
nan

>  <submitter_institution>  (320) 
nan

$$$$
x0969_0_A_α-x0766_0_A_α
     RDKit          3D

 21 24  0  0  0  0  0  0  0  0999 V2000
   -6.4100   14.9840    2.6430 N   0  0  0  0  0  0  0  0  0  0  0  0
   -6.1460   14.3080    1.4210 C   0  0  1  0  0  0  0  0  0  0  0  0
   -7.4210   14.2870    0.7200 N   0  0  0  0  0  0  0  0  0  0  0  0
   -5.1640   14.9680    0.5630 N   0  0  0  0  0  0  0  0  0  0  0  0
   -7.1310   14.7260   -0.6460 N   0  0  0  0  0  0  0  0  0  0  0  0
   -5.6860   14.5770   -0.7300 C   0  0  1  0  0  0  0  0  0  0  0  0
   -3.7310   14.5640    0.6490 C   0  0  0  0  0  0  0  0  0  0  0  0
   -5.1050   15.3740   -1.8530 C   0  0  0  0  0  0  0  0  0  0  0  0
   -2.8780   15.2440   -0.4640 C   0  0  2  0  0  0  0  0  0  0  0  0
   -3.6020   15.4100   -1.8400 C   0  0  1  0  0  0  0  0  0  0  0  0
   -1.5050   14.6400   -0.9130 C   0  0  0  0  0  0  0  0  0  0  0  0
   -2.9150   14.4260   -2.7470 C   0  0  0  0  0  0  0  0  0  0  0  0
   -1.5310   14.9490   -2.4400 C   0  0  2  0  0  0  0  0  0  0  0  0
   -0.4370   14.5820   -3.4750 C   0  0  2  0  0  0  0  0  0  0  0  0
    0.0470   13.1210   -3.6890 C   0  0  2  0  0  0  0  0  0  0  0  0
    0.8660   15.3300   -3.2530 C   0  0  0  0  0  0  0  0  0  0  0  0
    0.2250   12.2830   -2.4320 C   0  0  0  0  0  0  0  0  0  0  0  0
    1.4070   13.2910   -4.4080 C   0  0  0  0  0  0  0  0  0  0  0  0
    1.7150   14.7890   -4.3760 C   0  0  0  0  0  0  0  0  0  0  0  0
    0.4710   12.6930   -1.3120 O   0  0  0  0  0  0  0  0  0  0  0  0
    0.0810   10.9610   -2.6760 O   0  0  0  0  0  0  0  0  0  0  0  0
  2  1  1  1
  2  3  1  0
  2  4  1  0
  3  5  1  0
  4  6  1  0
  5  6  1  0
  4  7  1  0
  6  8  1  6
  9  7  1  1
 10  8  1  1
  9 10  1  0
  9 11  1  0
 10 12  1  0
 13 11  1  1
 12 13  1  0
 13 14  1  0
 14 15  1  0
 14 16  1  1
 15 17  1  1
 15 18  1  0
 16 19  1  0
 18 19  1  0
 17 20  2  0
 17 21  1  0
M  END
>  <comRMSD>  (321) 
0.503833

>  <∆∆G>  (321) 
-6.597634

>  <N_constrained_atoms>  (321) 
21.0

>  <LE>  (321) 
-0.314173

>  <ref_pdb>  (321) 
x0104_0

>  <ref_mols>  (321) 
x0969_0_A_α,x0766_0_A_α

>  <%Rank>  (321) 
5.490734

>  <generation_date>  (321) 
nan

>  <method>  (321) 
nan

>  <submitter_email>  (321) 
nan

>  <original SMILES>  (321) 
NC1NNC2CC3CC(C4CCCC4C(=O)O)CC3CN12

>  <ref_url>  (321) 
nan

>  <submitter_name>  (321) 
nan

>  <submitter_institution>  (321) 
nan

$$$$
x0465_0_A_α-x0967_0_A_α
     RDKit          3D

 26 28  0  0  0  0  0  0  0  0999 V2000
    2.1460   13.1760   -4.7320 C   0  0  0  0  0  0  0  0  0  0  0  0
    0.7390   12.6310   -4.5060 C   0  0  1  0  0  0  0  0  0  0  0  0
    0.6040   11.5390   -5.4380 O   0  0  0  0  0  0  0  0  0  0  0  0
    0.6280   12.1630   -3.0400 C   0  0  0  0  0  0  0  0  0  0  0  0
    0.5980   12.8500   -1.9410 N   0  0  0  0  0  0  0  0  0  0  0  0
    0.5420   10.8190   -2.8920 O   0  0  0  0  0  0  0  0  0  0  0  0
   -0.5970   10.8910   -5.5740 C   0  0  0  0  0  0  0  0  0  0  0  0
    0.6680   14.3140   -1.9000 C   0  0  0  0  0  0  0  0  0  0  0  0
   -0.6520    9.8770   -6.5480 C   0  0  0  0  0  0  0  0  0  0  0  0
   -1.7480   11.1560   -4.8350 C   0  0  0  0  0  0  0  0  0  0  0  0
    0.4230    9.5820   -7.2940 F   0  0  0  0  0  0  0  0  0  0  0  0
   -0.7540   14.9290   -1.9090 C   0  0  0  0  0  0  0  0  0  0  0  0
   -1.8140    9.1450   -6.7750 C   0  0  0  0  0  0  0  0  0  0  0  0
   -2.9180   10.4220   -5.0630 C   0  0  0  0  0  0  0  0  0  0  0  0
   -1.3740   15.3280   -0.5450 C   0  0  0  0  0  0  0  0  0  0  0  0
   -2.9530    9.4200   -6.0270 C   0  0  0  0  0  0  0  0  0  0  0  0
   -2.8820   15.1640   -0.5000 C   0  0  0  0  0  0  0  0  0  0  0  0
   -3.6130   15.1170   -1.6810 C   0  0  0  0  0  0  0  0  0  0  0  0
   -3.6210   15.0470    0.6850 C   0  0  0  0  0  0  0  0  0  0  0  0
   -5.0200   14.8840    0.6200 C   0  0  0  0  0  0  0  0  0  0  0  0
   -4.9540   14.9630   -1.7570 N   0  0  0  0  0  0  0  0  0  0  0  0
   -5.6590   14.8440   -0.6340 C   0  0  0  0  0  0  0  0  0  0  0  0
   -5.8100   14.7560    1.7680 C   0  0  0  0  0  0  0  0  0  0  0  0
   -6.9860   14.6850   -0.7340 N   0  0  0  0  0  0  0  0  0  0  0  0
   -7.1840   14.5880    1.6610 C   0  0  0  0  0  0  0  0  0  0  0  0
   -7.7210   14.5590    0.3930 C   0  0  0  0  0  0  0  0  0  0  0  0
  2  1  1  1
  2  3  1  0
  2  4  1  0
  4  5  2  3
  4  6  1  0
  3  7  1  0
  5  8  1  0
  7  9  2  0
  7 10  1  0
  9 11  1  0
  8 12  1  0
  9 13  1  0
 10 14  2  0
 12 15  1  0
 13 16  2  0
 14 16  1  0
 15 17  1  0
 17 18  2  0
 17 19  1  0
 19 20  2  0
 18 21  1  0
 20 22  1  0
 21 22  2  0
 20 23  1  0
 22 24  1  0
 23 25  2  0
 24 26  2  0
 25 26  1  0
M  END
>  <comRMSD>  (322) 
0.198113

>  <∆∆G>  (322) 
-7.449587

>  <N_constrained_atoms>  (322) 
23.0

>  <LE>  (322) 
-0.286523

>  <ref_pdb>  (322) 
x0104_0

>  <ref_mols>  (322) 
x0465_0_A_α,x0967_0_A_α

>  <%Rank>  (322) 
5.507893

>  <generation_date>  (322) 
nan

>  <method>  (322) 
nan

>  <submitter_email>  (322) 
nan

>  <original SMILES>  (322) 
C[C@@H](Oc1ccccc1F)C(O)=NCCCc1cnc2ncccc2c1

>  <ref_url>  (322) 
nan

>  <submitter_name>  (322) 
nan

>  <submitter_institution>  (322) 
nan

$$$$
x0681_0_A_α-x0852_0_B_α
     RDKit          3D

 25 27  0  0  0  0  0  0  0  0999 V2000
   -4.4730   15.5500   -2.1790 N   0  0  0  0  0  0  0  0  0  0  0  0
   -3.3530   14.8970   -1.7510 C   0  0  0  0  0  0  0  0  0  0  0  0
   -2.3730   14.8050   -2.4800 O   0  0  0  0  0  0  0  0  0  0  0  0
   -3.4450   14.3080   -0.3420 C   0  0  2  0  0  0  0  0  0  0  0  0
   -4.6430   13.4050   -0.3370 C   0  0  0  0  0  0  0  0  0  0  0  0
   -3.5070   15.3960    0.7480 C   0  0  0  0  0  0  0  0  0  0  0  0
   -5.6140   13.4780    0.6210 N   0  0  0  0  0  0  0  0  0  0  0  0
   -4.1790   14.8910    2.0310 C   0  0  0  0  0  0  0  0  0  0  0  0
   -4.9240   12.4600   -1.2180 N   0  0  0  0  0  0  0  0  0  0  0  0
   -5.6120   14.4240    1.7190 C   0  0  2  0  0  0  0  0  0  0  0  0
   -6.5550   12.5300    0.3460 C   0  0  0  0  0  0  0  0  0  0  0  0
   -6.1090   11.9120   -0.7980 C   0  0  0  0  0  0  0  0  0  0  0  0
   -6.3540   13.9600    2.9800 C   0  0  0  0  0  0  0  0  0  0  0  0
   -6.1660   14.8330    4.2290 C   0  0  0  0  0  0  0  0  0  0  0  0
   -6.6890   14.2100    5.5280 C   0  0  0  0  0  0  0  0  0  0  0  0
   -7.8720   14.9170    5.9270 O   0  0  0  0  0  0  0  0  0  0  0  0
   -8.5500   15.4100    4.8450 C   0  0  0  0  0  0  0  0  0  0  0  0
   -8.4560   14.7470    3.6170 C   0  0  0  0  0  0  0  0  0  0  0  0
   -9.3310   16.5630    4.9590 C   0  0  0  0  0  0  0  0  0  0  0  0
   -9.4660   17.2620    6.2050 C   0  0  0  0  0  0  0  0  0  0  0  0
   -9.1300   15.2310    2.5040 C   0  0  0  0  0  0  0  0  0  0  0  0
  -10.0070   17.0480    3.8350 C   0  0  0  0  0  0  0  0  0  0  0  0
   -9.6360   17.7970    7.2210 N   0  0  0  0  0  0  0  0  0  0  0  0
   -9.9020   16.3770    2.6130 C   0  0  0  0  0  0  0  0  0  0  0  0
  -10.8190   17.0220    1.0900 Br  0  0  0  0  0  0  0  0  0  0  0  0
  1  2  1  0
  2  3  2  0
  4  2  1  6
  4  5  1  0
  4  6  1  0
  5  7  1  0
  6  8  1  0
  5  9  2  0
  7 10  1  0
  8 10  1  0
  7 11  1  0
  9 12  1  0
 11 12  2  0
 10 13  1  1
 13 14  1  0
 14 15  1  0
 15 16  1  0
 16 17  1  0
 17 18  2  0
 17 19  1  0
 19 20  1  0
 18 21  1  0
 19 22  2  0
 20 23  3  0
 21 24  2  0
 22 24  1  0
 24 25  1  0
M  END
>  <comRMSD>  (323) 
0.19694

>  <∆∆G>  (323) 
-8.669908

>  <N_constrained_atoms>  (323) 
22.0

>  <LE>  (323) 
-0.346796

>  <ref_pdb>  (323) 
x0104_0

>  <ref_mols>  (323) 
x0681_0_A_α,x0852_0_B_α

>  <%Rank>  (323) 
5.525051

>  <generation_date>  (323) 
nan

>  <method>  (323) 
nan

>  <submitter_email>  (323) 
nan

>  <original SMILES>  (323) 
N#Cc1cc(Br)ccc1OCCCC1CCC(C(N)=O)c2nccn21

>  <ref_url>  (323) 
nan

>  <submitter_name>  (323) 
nan

>  <submitter_institution>  (323) 
nan

$$$$
x0852_0_B_α-x0722_0_A_α
     RDKit          3D

 25 26  0  0  0  0  0  0  0  0999 V2000
   -9.7570   17.8260    7.2200 N   0  0  0  0  0  0  0  0  0  0  0  0
   -9.5400   17.3240    6.1950 C   0  0  0  0  0  0  0  0  0  0  0  0
   -9.2970   16.6410    4.9630 C   0  0  0  0  0  0  0  0  0  0  0  0
   -8.3780   15.5950    4.9000 C   0  0  0  0  0  0  0  0  0  0  0  0
   -9.9970   17.0300    3.8100 C   0  0  0  0  0  0  0  0  0  0  0  0
   -7.6630   15.1620    5.9780 O   0  0  0  0  0  0  0  0  0  0  0  0
   -8.1540   14.9350    3.6990 C   0  0  0  0  0  0  0  0  0  0  0  0
   -9.7810   16.3710    2.5980 C   0  0  0  0  0  0  0  0  0  0  0  0
  -10.3910   16.6420    1.4000 O   0  0  0  0  0  0  0  0  0  0  0  0
   -8.8530   15.3220    2.5560 C   0  0  0  0  0  0  0  0  0  0  0  0
  -10.4120   15.6290    0.3950 C   0  0  0  0  0  0  0  0  0  0  0  0
   -9.3650   15.8820   -0.6860 C   0  0  0  0  0  0  0  0  0  0  0  0
   -8.3690   14.7300   -0.7990 C   0  0  0  0  0  0  0  0  0  0  0  0
   -7.0690   15.3080   -1.0830 N   0  0  0  0  0  0  0  0  0  0  0  0
   -5.9630   14.7330   -0.7570 C   0  0  0  0  0  0  0  0  0  0  0  0
   -6.0370   13.5260   -0.1020 N   0  0  0  0  0  0  0  0  0  0  0  0
   -4.5900   15.3140   -1.0570 C   0  0  0  0  0  0  0  0  0  0  0  0
   -3.5430   15.0100   -0.0470 C   0  0  0  0  0  0  0  0  0  0  0  0
   -3.6710   14.9750    1.3630 C   0  0  0  0  0  0  0  0  0  0  0  0
   -2.2100   14.6910   -0.2730 C   0  0  0  0  0  0  0  0  0  0  0  0
   -4.8720   15.2220    2.1820 C   0  0  0  0  0  0  0  0  0  0  0  0
   -1.4300   14.5490   -1.5240 C   0  0  0  0  0  0  0  0  0  0  0  0
   -2.5260   14.6700    1.9560 N   0  0  0  0  0  0  0  0  0  0  0  0
   -1.6560   14.5080    0.9610 N   0  0  0  0  0  0  0  0  0  0  0  0
   -0.2850   14.1700    1.2660 C   0  0  0  0  0  0  0  0  0  0  0  0
  1  2  3  0
  2  3  1  0
  3  4  2  0
  3  5  1  0
  4  6  1  0
  4  7  1  0
  5  8  2  0
  8  9  1  0
  7 10  2  0
  8 10  1  0
  9 11  1  0
 11 12  1  0
 12 13  1  0
 13 14  1  0
 14 15  2  3
 15 16  1  0
 15 17  1  0
 17 18  1  0
 18 19  1  0
 18 20  2  0
 19 21  1  0
 20 22  1  0
 19 23  2  0
 20 24  1  0
 23 24  1  0
 24 25  1  0
M  END
>  <comRMSD>  (324) 
0.244207

>  <∆∆G>  (324) 
-11.031636

>  <N_constrained_atoms>  (324) 
22.0

>  <LE>  (324) 
-0.441265

>  <ref_pdb>  (324) 
x0104_0

>  <ref_mols>  (324) 
x0852_0_B_α,x0722_0_A_α

>  <%Rank>  (324) 
5.54221

>  <generation_date>  (324) 
nan

>  <method>  (324) 
nan

>  <submitter_email>  (324) 
nan

>  <original SMILES>  (324) 
Cc1nn(C)c(C)c1CC(N)=NCCCOc1ccc(O)c(C#N)c1

>  <ref_url>  (324) 
nan

>  <submitter_name>  (324) 
nan

>  <submitter_institution>  (324) 
nan

$$$$
x0631_0_A_β-x0676_0_B_α
     RDKit          3D

 22 24  0  0  0  0  0  0  0  0999 V2000
   -0.2320    8.2840   -6.8720 C   0  0  0  0  0  0  0  0  0  0  0  0
   -1.6770    8.0440   -7.3170 C   0  0  0  0  0  0  0  0  0  0  0  0
   -2.5150    9.2980   -7.4860 C   0  0  0  0  0  0  0  0  0  0  0  0
    0.5250    9.4220   -7.4070 N   0  0  0  0  0  0  0  0  0  0  0  0
    1.2020    9.3130   -8.6770 N   0  0  0  0  0  0  0  0  0  0  0  0
    0.0230   10.7400   -7.2580 N   0  0  0  0  0  0  0  0  0  0  0  0
    0.7610    8.2530   -9.5870 C   0  0  0  0  0  0  0  0  0  0  0  0
    0.9700   10.6310   -9.2640 C   0  0  0  0  0  0  0  0  0  0  0  0
    0.9210   11.4890   -8.0820 N   0  0  0  0  0  0  0  0  0  0  0  0
    1.5000    8.4410  -10.8320 N   0  0  0  0  0  0  0  0  0  0  0  0
    2.7020    8.0230  -10.9380 C   0  0  0  0  0  0  0  0  0  0  0  0
    3.2830    7.2910   -9.7610 C   0  0  0  0  0  0  0  0  0  0  0  0
    3.7110    8.0590  -11.8910 N   0  0  0  0  0  0  0  0  0  0  0  0
    4.9510    7.6480  -11.3720 N   0  0  0  0  0  0  0  0  0  0  0  0
    4.7230    7.2230  -10.1630 C   0  0  0  0  0  0  0  0  0  0  0  0
    3.8330    9.1400  -12.8120 C   0  0  0  0  0  0  0  0  0  0  0  0
    5.7780    6.7150   -9.2420 C   0  0  0  0  0  0  0  0  0  0  0  0
    2.9400   10.2310  -12.8090 C   0  0  0  0  0  0  0  0  0  0  0  0
    4.8610    9.1530  -13.7590 C   0  0  0  0  0  0  0  0  0  0  0  0
    3.0750   11.2880  -13.7170 C   0  0  0  0  0  0  0  0  0  0  0  0
    4.9990   10.2050  -14.6700 C   0  0  0  0  0  0  0  0  0  0  0  0
    4.1040   11.2740  -14.6470 C   0  0  0  0  0  0  0  0  0  0  0  0
  1  2  1  0
  2  3  1  0
  1  4  1  0
  4  5  1  0
  4  6  1  0
  5  7  1  0
  5  8  1  0
  6  9  1  0
  8  9  1  0
  7 10  1  0
 10 11  2  3
 11 12  1  0
 11 13  1  0
 13 14  1  0
 12 15  1  0
 14 15  2  0
 13 16  1  0
 15 17  1  0
 16 18  2  0
 16 19  1  0
 18 20  1  0
 19 21  2  0
 20 22  2  0
 21 22  1  0
M  END
>  <comRMSD>  (325) 
0.356217

>  <∆∆G>  (325) 
-5.615026

>  <N_constrained_atoms>  (325) 
21.0

>  <LE>  (325) 
-0.255228

>  <ref_pdb>  (325) 
x0104_0

>  <ref_mols>  (325) 
x0631_0_A_β,x0676_0_B_α

>  <%Rank>  (325) 
5.559369

>  <generation_date>  (325) 
nan

>  <method>  (325) 
nan

>  <submitter_email>  (325) 
nan

>  <original SMILES>  (325) 
CCCN1NNCN1CN=C1CC(C)=NN1c1ccccc1

>  <ref_url>  (325) 
nan

>  <submitter_name>  (325) 
nan

>  <submitter_institution>  (325) 
nan

$$$$
x0849_0_A_α-x0628_0_A_α
     RDKit          3D

 24 26  0  0  0  0  0  0  0  0999 V2000
   -3.8970   15.1760   -2.7740 Br  0  0  0  0  0  0  0  0  0  0  0  0
   -3.7220   15.1540   -0.8880 C   0  0  0  0  0  0  0  0  0  0  0  0
   -2.4920   14.8990   -0.2820 C   0  0  0  0  0  0  0  0  0  0  0  0
   -4.8410   15.3950   -0.1190 C   0  0  0  0  0  0  0  0  0  0  0  0
   -2.4340   14.8920    1.1060 C   0  0  0  0  0  0  0  0  0  0  0  0
   -4.6660   15.3630    1.2410 C   0  0  0  0  0  0  0  0  0  0  0  0
   -1.3200   14.6560   -0.9930 C   0  0  0  0  0  0  0  0  0  0  0  0
   -3.4950   15.1190    1.8360 N   0  0  0  0  0  0  0  0  0  0  0  0
   -1.3160   14.6580    1.7500 N   0  0  0  0  0  0  0  0  0  0  0  0
   -0.1390   14.4190   -0.3460 C   0  0  0  0  0  0  0  0  0  0  0  0
    1.0560   14.1780   -1.2140 C   0  0  0  0  0  0  0  0  0  0  0  0
   -0.2050   14.4310    1.0470 C   0  0  0  0  0  0  0  0  0  0  0  0
    0.5060   13.6390   -2.4240 O   0  0  0  0  0  0  0  0  0  0  0  0
    1.0160   12.5240   -2.9980 C   0  0  0  0  0  0  0  0  0  0  0  0
    0.9230   11.3770   -2.5760 O   0  0  0  0  0  0  0  0  0  0  0  0
    1.6850   12.9330   -4.2820 C   0  0  0  0  0  0  0  0  0  0  0  0
    0.6340   13.1470   -5.3630 C   0  0  0  0  0  0  0  0  0  0  0  0
   -0.2110   11.9850   -5.6020 N   0  0  0  0  0  0  0  0  0  0  0  0
    0.1730   11.0780   -6.5130 N   0  0  0  0  0  0  0  0  0  0  0  0
   -1.4060   11.6340   -5.0240 C   0  0  0  0  0  0  0  0  0  0  0  0
   -2.1110   12.4150   -3.9850 C   0  0  0  0  0  0  0  0  0  0  0  0
   -1.8050   10.4930   -5.5560 N   0  0  0  0  0  0  0  0  0  0  0  0
   -0.8200   10.1880   -6.4530 C   0  0  0  0  0  0  0  0  0  0  0  0
   -0.8420    8.9730   -7.2890 C   0  0  0  0  0  0  0  0  0  0  0  0
  1  2  1  0
  2  3  2  0
  2  4  1  0
  3  5  1  0
  4  6  2  0
  3  7  1  0
  5  8  2  0
  6  8  1  0
  5  9  1  0
  7 10  2  0
 10 11  1  0
  9 12  2  0
 10 12  1  0
 11 13  1  0
 13 14  1  0
 14 15  2  0
 14 16  1  0
 16 17  1  0
 17 18  1  0
 18 19  1  0
 18 20  1  0
 20 21  1  0
 20 22  2  0
 19 23  2  0
 22 23  1  0
 23 24  1  0
M  END
>  <comRMSD>  (326) 
0.423439

>  <∆∆G>  (326) 
-7.211433

>  <N_constrained_atoms>  (326) 
23.0

>  <LE>  (326) 
-0.300476

>  <ref_pdb>  (326) 
x0104_0

>  <ref_mols>  (326) 
x0849_0_A_α,x0628_0_A_α

>  <%Rank>  (326) 
5.576527

>  <generation_date>  (326) 
nan

>  <method>  (326) 
nan

>  <submitter_email>  (326) 
nan

>  <original SMILES>  (326) 
Cc1nc(C)n(CCC(=O)OCc2cnc3nccc(Br)c3c2)n1

>  <ref_url>  (326) 
nan

>  <submitter_name>  (326) 
nan

>  <submitter_institution>  (326) 
nan

$$$$
x1015_0_A_α-x0662_0_A_α
     RDKit          3D

 26 28  0  0  0  0  0  0  0  0999 V2000
   -1.3040   14.4430   -4.2570 C   0  0  0  0  0  0  0  0  0  0  0  0
   -0.0090   13.6930   -3.9460 C   0  0  2  0  0  0  0  0  0  0  0  0
   -0.1560   12.2430   -3.8960 N   0  0  0  0  0  0  0  0  0  0  0  0
    0.3970   13.9650   -2.5050 C   0  0  0  0  0  0  0  0  0  0  0  0
    0.4860   15.0580   -1.9660 O   0  0  0  0  0  0  0  0  0  0  0  0
    0.2580   11.7350   -2.6580 C   0  0  0  0  0  0  0  0  0  0  0  0
    0.6570   12.7870   -1.8910 N   0  0  0  0  0  0  0  0  0  0  0  0
   -0.5120   11.4570   -5.0150 C   0  0  0  0  0  0  0  0  0  0  0  0
    0.2850   10.5630   -2.2690 O   0  0  0  0  0  0  0  0  0  0  0  0
    0.0630   11.6760   -6.2710 C   0  0  0  0  0  0  0  0  0  0  0  0
   -1.4570   10.4300   -4.8910 C   0  0  0  0  0  0  0  0  0  0  0  0
   -0.2940   10.8920   -7.3690 C   0  0  0  0  0  0  0  0  0  0  0  0
   -1.8160    9.6440   -5.9870 C   0  0  0  0  0  0  0  0  0  0  0  0
   -1.2370    9.8690   -7.2370 C   0  0  0  0  0  0  0  0  0  0  0  0
   -1.6220    9.0150   -8.4200 C   0  0  0  0  0  0  0  0  0  0  0  0
   -0.5170    8.0230   -8.7860 C   0  0  0  0  0  0  0  0  0  0  0  0
    0.8350    8.7000   -9.0500 C   0  0  0  0  0  0  0  0  0  0  0  0
    1.8130    7.7070   -9.6760 C   0  0  0  0  0  0  0  0  0  0  0  0
    2.5250    8.2480  -10.8320 N   0  0  0  0  0  0  0  0  0  0  0  0
    2.2440    9.3350  -11.4650 C   0  0  0  0  0  0  0  0  0  0  0  0
    2.9460    9.8890  -12.6170 C   0  0  0  0  0  0  0  0  0  0  0  0
    3.8980    9.2180  -13.2770 N   0  0  0  0  0  0  0  0  0  0  0  0
    2.7500   11.1780  -13.1950 C   0  0  0  0  0  0  0  0  0  0  0  0
    4.3000   10.0530  -14.2440 N   0  0  0  0  0  0  0  0  0  0  0  0
    3.6390   11.2510  -14.2420 C   0  0  0  0  0  0  0  0  0  0  0  0
    5.3420    9.6270  -15.1470 C   0  0  0  0  0  0  0  0  0  0  0  0
  2  1  1  1
  2  3  1  0
  2  4  1  0
  4  5  2  0
  3  6  1  0
  4  7  1  0
  6  7  1  0
  3  8  1  0
  6  9  2  0
  8 10  2  0
  8 11  1  0
 10 12  1  0
 11 13  2  0
 12 14  2  0
 13 14  1  0
 14 15  1  0
 15 16  1  0
 16 17  1  0
 17 18  1  0
 18 19  1  0
 19 20  2  3
 20 21  1  0
 21 22  2  0
 21 23  1  0
 22 24  1  0
 23 25  2  0
 24 25  1  0
 24 26  1  0
M  END
>  <comRMSD>  (327) 
0.181016

>  <∆∆G>  (327) 
-6.502033

>  <N_constrained_atoms>  (327) 
23.0

>  <LE>  (327) 
-0.250078

>  <ref_pdb>  (327) 
x0104_0

>  <ref_mols>  (327) 
x1015_0_A_α,x0662_0_A_α

>  <%Rank>  (327) 
5.593686

>  <generation_date>  (327) 
nan

>  <method>  (327) 
nan

>  <submitter_email>  (327) 
nan

>  <original SMILES>  (327) 
CC1C(=O)NC(=O)N1c1ccc(CCCCN=Cc2ccn(C)n2)cc1

>  <ref_url>  (327) 
nan

>  <submitter_name>  (327) 
nan

>  <submitter_institution>  (327) 
nan

$$$$
x0685_0_A_α-x0864_0_A_α
     RDKit          3D

 26 27  0  0  0  0  0  0  0  0999 V2000
   -6.0630   14.9090    2.6460 N   0  0  0  0  0  0  0  0  0  0  0  0
   -7.5010   14.6770    2.6410 C   0  0  0  0  0  0  0  0  0  0  0  0
   -7.7810   13.2250    2.9860 C   0  0  0  0  0  0  0  0  0  0  0  0
   -5.3840   14.9570    1.4310 C   0  0  0  0  0  0  0  0  0  0  0  0
   -3.9990   15.0410    1.3570 C   0  0  0  0  0  0  0  0  0  0  0  0
   -6.1620   14.9280    0.3330 N   0  0  0  0  0  0  0  0  0  0  0  0
   -3.3860   15.1070    0.1120 C   0  0  0  0  0  0  0  0  0  0  0  0
   -5.5460   15.0000   -0.8690 C   0  0  0  0  0  0  0  0  0  0  0  0
   -4.1770   15.0920   -1.0270 C   0  0  0  0  0  0  0  0  0  0  0  0
   -3.5880   15.1710   -2.3220 C   0  0  0  0  0  0  0  0  0  0  0  0
   -3.0830   15.2770   -3.4020 C   0  0  0  0  0  0  0  0  0  0  0  0
   -2.4260   15.4150   -4.7060 C   0  0  0  0  0  0  0  0  0  0  0  0
   -1.6280   14.1590   -5.0590 C   0  0  0  0  0  0  0  0  0  0  0  0
   -0.1250   14.1990   -4.7330 C   0  0  0  0  0  0  0  0  0  0  0  0
    0.5460   12.8160   -4.5900 C   0  0  1  0  0  0  0  0  0  0  0  0
    0.7170   12.3430   -3.1330 C   0  0  0  0  0  0  0  0  0  0  0  0
   -0.1320   11.7650   -5.3740 N   0  0  0  0  0  0  0  0  0  0  0  0
    0.4190   11.0440   -2.9170 O   0  0  0  0  0  0  0  0  0  0  0  0
    1.0930   13.0200   -2.1910 O   0  0  0  0  0  0  0  0  0  0  0  0
   -1.3010   11.1800   -4.9120 C   0  0  0  0  0  0  0  0  0  0  0  0
    0.5110   11.3150   -6.5180 C   0  0  0  0  0  0  0  0  0  0  0  0
    1.5570   11.7780   -6.9380 O   0  0  0  0  0  0  0  0  0  0  0  0
   -1.8650   10.1570   -5.5660 C   0  0  0  0  0  0  0  0  0  0  0  0
   -0.1250   10.1900   -7.2390 C   0  0  0  0  0  0  0  0  0  0  0  0
   -1.2550    9.6490   -6.7700 C   0  0  0  0  0  0  0  0  0  0  0  0
   -2.0920    8.2240   -7.6350 Br  0  0  0  0  0  0  0  0  0  0  0  0
  1  2  1  0
  2  3  1  0
  1  4  1  0
  4  5  2  0
  4  6  1  0
  5  7  1  0
  6  8  2  0
  7  9  2  0
  8  9  1  0
  9 10  1  0
 10 11  3  0
 11 12  1  0
 12 13  1  0
 13 14  1  0
 15 14  1  1
 15 16  1  0
 15 17  1  0
 16 18  1  0
 16 19  2  0
 17 20  1  0
 17 21  1  0
 21 22  2  0
 20 23  2  0
 21 24  1  0
 23 25  1  0
 24 25  2  0
 25 26  1  0
M  END
>  <comRMSD>  (328) 
0.18462

>  <∆∆G>  (328) 
-6.688201

>  <N_constrained_atoms>  (328) 
23.0

>  <LE>  (328) 
-0.257238

>  <ref_pdb>  (328) 
x0104_0

>  <ref_mols>  (328) 
x0685_0_A_α,x0864_0_A_α

>  <%Rank>  (328) 
5.610844

>  <generation_date>  (328) 
nan

>  <method>  (328) 
nan

>  <submitter_email>  (328) 
nan

>  <original SMILES>  (328) 
CCNc1ccc(C#CCCCC(C(=O)O)n2ccc(Br)cc2=O)cn1

>  <ref_url>  (328) 
nan

>  <submitter_name>  (328) 
nan

>  <submitter_institution>  (328) 
nan

$$$$
x0574_0_A_α-x0844_0_A_α
     RDKit          3D

 13 14  0  0  0  0  0  0  0  0999 V2000
    0.1590   14.0910    2.1200 N   0  0  0  0  0  0  0  0  0  0  0  0
   -0.9160   14.3160    1.3970 C   0  0  0  0  0  0  0  0  0  0  0  0
   -2.0430   14.3810    1.9840 N   0  0  0  0  0  0  0  0  0  0  0  0
   -0.9290   14.5230   -0.3020 S   0  0  0  0  0  0  0  0  0  0  0  0
   -3.0440   14.5750    1.0880 C   0  0  0  0  0  0  0  0  0  0  0  0
   -2.6580   14.6780   -0.2400 C   0  0  0  0  0  0  0  0  0  0  0  0
   -4.3840   14.6620    1.4420 C   0  0  0  0  0  0  0  0  0  0  0  0
   -3.6280   14.8670   -1.2340 C   0  0  0  0  0  0  0  0  0  0  0  0
   -3.1740   15.0010   -3.0570 Br  0  0  0  0  0  0  0  0  0  0  0  0
   -5.3470   14.8420    0.4850 C   0  0  0  0  0  0  0  0  0  0  0  0
   -4.9760   14.9470   -0.8530 C   0  0  0  0  0  0  0  0  0  0  0  0
   -6.6790   14.9210    0.7730 O   0  0  0  0  0  0  0  0  0  0  0  0
   -7.0130   14.5860    2.1250 C   0  0  0  0  0  0  0  0  0  0  0  0
  1  2  1  0
  2  3  2  0
  2  4  1  0
  3  5  1  0
  4  6  1  0
  5  6  2  0
  5  7  1  0
  6  8  1  0
  8  9  1  0
  7 10  2  0
  8 11  2  0
 10 11  1  0
 10 12  1  0
 12 13  1  0
M  END
>  <comRMSD>  (329) 
0.514452

>  <∆∆G>  (329) 
-8.935913

>  <N_constrained_atoms>  (329) 
13.0

>  <LE>  (329) 
-0.687378

>  <ref_pdb>  (329) 
x0104_0

>  <ref_mols>  (329) 
x0574_0_A_α,x0844_0_A_α

>  <%Rank>  (329) 
5.628003

>  <generation_date>  (329) 
nan

>  <method>  (329) 
nan

>  <submitter_email>  (329) 
nan

>  <original SMILES>  (329) 
COc1cc(Br)c2sc(N)nc2c1

>  <ref_url>  (329) 
nan

>  <submitter_name>  (329) 
nan

>  <submitter_institution>  (329) 
nan

$$$$
5cb5_Q_0_Q_β-6MEA_0_A_α
     RDKit          3D

 17 17  0  0  0  0  0  0  0  0999 V2000
   -2.0010   21.2840   -8.6810 O   0  0  0  0  0  0  0  0  0  0  0  0
   -0.9130   20.3740   -7.8770 P   0  0  2  0  0  0  0  0  0  0  0  0
   -1.5610   19.9030   -6.5120 O   0  0  0  0  0  0  0  0  0  0  0  0
   -3.3470   21.6970   -8.3150 C   0  0  1  0  0  0  0  0  0  0  0  0
    0.4190   21.0270   -7.6740 O   0  0  0  0  0  0  0  0  0  0  0  0
   -0.7070   18.9970   -8.6780 O   0  0  0  0  0  0  0  0  0  0  0  0
   -3.8860   21.0400   -7.1660 O   0  0  0  0  0  0  0  0  0  0  0  0
   -3.5860   23.2250   -8.0520 C   0  0  1  0  0  0  0  0  0  0  0  0
   -1.7540   18.3650   -6.1790 P   0  0  0  0  0  0  0  0  0  0  0  0
   -4.3450   23.8570   -9.1020 O   0  0  0  0  0  0  0  0  0  0  0  0
   -4.9980   21.8570   -6.8150 C   0  0  2  0  0  0  0  0  0  0  0  0
   -4.3660   23.2300   -6.7200 C   0  0  2  0  0  0  0  0  0  0  0  0
   -0.3290   17.6800   -6.2870 O   0  0  0  0  0  0  0  0  0  0  0  0
   -2.8310   17.6390   -6.8780 O   0  0  0  0  0  0  0  0  0  0  0  0
   -1.8930   18.3990   -4.6020 O   0  0  0  0  0  0  0  0  0  0  0  0
   -5.5250   21.4700   -5.5580 O   0  0  0  0  0  0  0  0  0  0  0  0
   -5.4000   24.2270   -6.6380 O   0  0  0  0  0  0  0  0  0  0  0  0
  1  2  1  0
  2  3  1  0
  4  1  1  1
  2  5  2  0
  2  6  1  6
  4  7  1  0
  4  8  1  0
  3  9  1  0
  8 10  1  6
  7 11  1  0
  8 12  1  0
 11 12  1  0
  9 13  1  0
  9 14  2  0
  9 15  1  0
 11 16  1  1
 12 17  1  6
M  END
>  <comRMSD>  (330) 
0.667794

>  <∆∆G>  (330) 
-13.526313

>  <N_constrained_atoms>  (330) 
17.0

>  <LE>  (330) 
-0.795665

>  <ref_pdb>  (330) 
x0104_0

>  <ref_mols>  (330) 


>  <%Rank>  (330) 
5.645161

>  <generation_date>  (330) 
nan

>  <method>  (330) 
nan

>  <submitter_email>  (330) 
nan

>  <original SMILES>  (330) 
O=P(O)(O)OP(=O)(O)OC1OC(O)C(O)C1O

>  <ref_url>  (330) 
nan

>  <submitter_name>  (330) 
nan

>  <submitter_institution>  (330) 
nan

$$$$
x0465_0_A_α-x1012_0_A_α
     RDKit          3D

 22 23  0  0  0  0  0  0  0  0999 V2000
    2.3150   12.9750   -5.0460 C   0  0  0  0  0  0  0  0  0  0  0  0
    0.8630   12.5640   -4.8570 C   0  0  1  0  0  0  0  0  0  0  0  0
    0.6870   11.3020   -5.5150 O   0  0  0  0  0  0  0  0  0  0  0  0
    0.5820   12.4850   -3.3240 C   0  0  0  0  0  0  0  0  0  0  0  0
    1.8010   12.4640   -2.6010 O   0  0  0  0  0  0  0  0  0  0  0  0
   -0.0710   11.2800   -2.9490 O   0  0  0  0  0  0  0  0  0  0  0  0
   -0.5590   10.7560   -5.6440 C   0  0  0  0  0  0  0  0  0  0  0  0
   -0.1380   13.7780   -2.8800 C   0  0  0  0  0  0  0  0  0  0  0  0
   -0.6920    9.7330   -6.5900 C   0  0  0  0  0  0  0  0  0  0  0  0
   -1.6780   11.1430   -4.9080 C   0  0  0  0  0  0  0  0  0  0  0  0
   -1.5870   13.9620   -3.4060 C   0  0  0  0  0  0  0  0  0  0  0  0
    0.7580   15.0160   -3.1870 C   0  0  0  0  0  0  0  0  0  0  0  0
    0.3640    9.3390   -7.3190 F   0  0  0  0  0  0  0  0  0  0  0  0
   -1.9070    9.1010   -6.8000 C   0  0  0  0  0  0  0  0  0  0  0  0
   -2.9050   10.5100   -5.1170 C   0  0  0  0  0  0  0  0  0  0  0  0
   -1.7030   14.6610   -4.7630 C   0  0  0  0  0  0  0  0  0  0  0  0
    0.5800   15.5850   -4.5930 C   0  0  0  0  0  0  0  0  0  0  0  0
   -3.0220    9.4870   -6.0610 C   0  0  0  0  0  0  0  0  0  0  0  0
   -0.8290   15.8300   -4.8790 N   0  0  0  0  0  0  0  0  0  0  0  0
   -1.2750   17.1270   -4.7940 C   0  0  0  0  0  0  0  0  0  0  0  0
   -0.3310   18.0910   -4.7490 N   0  0  0  0  0  0  0  0  0  0  0  0
   -2.4480   17.4560   -4.7480 O   0  0  0  0  0  0  0  0  0  0  0  0
  2  1  1  1
  2  3  1  0
  2  4  1  0
  4  5  1  0
  4  6  1  0
  3  7  1  0
  4  8  1  0
  7  9  2  0
  7 10  1  0
  8 11  1  0
  8 12  1  0
  9 13  1  0
  9 14  1  0
 10 15  2  0
 11 16  1  0
 12 17  1  0
 14 18  2  0
 15 18  1  0
 16 19  1  0
 17 19  1  0
 19 20  1  0
 20 21  1  0
 20 22  2  0
M  END
>  <comRMSD>  (331) 
0.505377

>  <∆∆G>  (331) 
-6.027805

>  <N_constrained_atoms>  (331) 
22.0

>  <LE>  (331) 
-0.273991

>  <ref_pdb>  (331) 
x0104_0

>  <ref_mols>  (331) 
x0465_0_A_α,x1012_0_A_α

>  <%Rank>  (331) 
5.66232

>  <generation_date>  (331) 
nan

>  <method>  (331) 
nan

>  <submitter_email>  (331) 
nan

>  <original SMILES>  (331) 
C[C@@H](Oc1ccccc1F)C(O)(O)C1CCN(C(N)=O)CC1

>  <ref_url>  (331) 
nan

>  <submitter_name>  (331) 
nan

>  <submitter_institution>  (331) 
nan

$$$$
x0852_0_B_α-x0626_0_A_α
     RDKit          3D

 23 24  0  0  0  0  0  0  0  0999 V2000
   -9.6820   17.8040    7.3050 N   0  0  0  0  0  0  0  0  0  0  0  0
   -9.4470   17.2890    6.2870 C   0  0  0  0  0  0  0  0  0  0  0  0
   -9.2200   16.6050    5.0510 C   0  0  0  0  0  0  0  0  0  0  0  0
   -8.3080   15.5440    4.9590 C   0  0  0  0  0  0  0  0  0  0  0  0
   -9.9430   17.0200    3.9160 C   0  0  0  0  0  0  0  0  0  0  0  0
   -7.5980   15.1380    6.0610 O   0  0  0  0  0  0  0  0  0  0  0  0
   -8.1230   14.8990    3.7490 C   0  0  0  0  0  0  0  0  0  0  0  0
   -9.7590   16.3760    2.6980 C   0  0  0  0  0  0  0  0  0  0  0  0
  -10.3820   16.6630    1.5050 O   0  0  0  0  0  0  0  0  0  0  0  0
   -8.8510   15.3190    2.6330 C   0  0  0  0  0  0  0  0  0  0  0  0
   -9.8760   16.0930    0.3020 C   0  0  0  0  0  0  0  0  0  0  0  0
   -9.7950   14.5660    0.3560 C   0  0  0  0  0  0  0  0  0  0  0  0
   -8.3860   13.9610    0.1980 C   0  0  0  0  0  0  0  0  0  0  0  0
   -7.3100   14.3170    1.2310 C   0  0  0  0  0  0  0  0  0  0  0  0
   -5.9980   14.7280    0.5910 C   0  0  0  0  0  0  0  0  0  0  0  0
   -4.8730   14.8880    1.3380 N   0  0  0  0  0  0  0  0  0  0  0  0
   -5.9250   14.9330   -0.6250 O   0  0  0  0  0  0  0  0  0  0  0  0
   -3.6050   14.7990    0.8720 C   0  0  0  0  0  0  0  0  0  0  0  0
   -2.4790   14.6700    1.5370 N   0  0  0  0  0  0  0  0  0  0  0  0
   -3.4890   14.8620   -0.8340 S   0  0  0  0  0  0  0  0  0  0  0  0
   -1.7910   14.6900   -0.6910 C   0  0  0  0  0  0  0  0  0  0  0  0
   -1.4380   14.6040    0.6410 C   0  0  0  0  0  0  0  0  0  0  0  0
   -0.0870   14.4500    1.1800 C   0  0  0  0  0  0  0  0  0  0  0  0
  1  2  3  0
  2  3  1  0
  3  4  2  0
  3  5  1  0
  4  6  1  0
  4  7  1  0
  5  8  2  0
  8  9  1  0
  7 10  2  0
  8 10  1  0
  9 11  1  0
 11 12  1  0
 12 13  1  0
 13 14  1  0
 14 15  1  0
 15 16  1  0
 15 17  2  0
 16 18  1  0
 18 19  2  0
 18 20  1  0
 20 21  1  0
 19 22  1  0
 21 22  2  0
 22 23  1  0
M  END
>  <comRMSD>  (332) 
0.306849

>  <∆∆G>  (332) 
-8.914984

>  <N_constrained_atoms>  (332) 
21.0

>  <LE>  (332) 
-0.387608

>  <ref_pdb>  (332) 
x0104_0

>  <ref_mols>  (332) 
x0852_0_B_α,x0626_0_A_α

>  <%Rank>  (332) 
5.679478

>  <generation_date>  (332) 
nan

>  <method>  (332) 
nan

>  <submitter_email>  (332) 
nan

>  <original SMILES>  (332) 
Cc1csc(NC(=O)CCCCOc2ccc(O)c(C#N)c2)n1

>  <ref_url>  (332) 
nan

>  <submitter_name>  (332) 
nan

>  <submitter_institution>  (332) 
nan

$$$$
x1015_0_A_α-x0471_0_A_α
     RDKit          3D

 33 36  0  0  0  0  0  0  0  0999 V2000
   -1.1420   14.2540   -4.3070 C   0  0  0  0  0  0  0  0  0  0  0  0
    0.0850   13.4940   -3.7920 C   0  0  2  0  0  0  0  0  0  0  0  0
   -0.0480   12.0460   -3.9370 N   0  0  0  0  0  0  0  0  0  0  0  0
    0.0960   13.5400   -2.2600 C   0  0  0  0  0  0  0  0  0  0  0  0
    0.5100   14.4510   -1.5000 N   0  0  0  0  0  0  0  0  0  0  0  0
    0.2850   11.4350   -2.7340 C   0  0  0  0  0  0  0  0  0  0  0  0
    0.7370   12.4100   -1.9440 N   0  0  0  0  0  0  0  0  0  0  0  0
   -0.4690   11.3440   -5.0900 C   0  0  0  0  0  0  0  0  0  0  0  0
    0.2180   10.2710   -2.3840 O   0  0  0  0  0  0  0  0  0  0  0  0
   -0.4740   15.0940   -0.6480 C   0  0  0  0  0  0  0  0  0  0  0  0
    0.0850   11.5960   -6.3560 C   0  0  0  0  0  0  0  0  0  0  0  0
   -1.4590   10.3600   -4.9860 C   0  0  0  0  0  0  0  0  0  0  0  0
   -1.4220   14.2250    0.1810 C   0  0  0  0  0  0  0  0  0  0  0  0
   -0.3420   10.8770   -7.4750 C   0  0  0  0  0  0  0  0  0  0  0  0
   -1.8880    9.6400   -6.1000 C   0  0  0  0  0  0  0  0  0  0  0  0
   -1.3270    9.8990   -7.3400 C   0  0  0  0  0  0  0  0  0  0  0  0
   -2.9120   14.5260   -0.0840 C   0  0  0  0  0  0  0  0  0  0  0  0
   -1.8530    9.0080   -8.7120 Cl  0  0  0  0  0  0  0  0  0  0  0  0
   -3.3850   15.0670   -1.3050 C   0  0  0  0  0  0  0  0  0  0  0  0
   -3.8540   14.2370    0.9220 C   0  0  0  0  0  0  0  0  0  0  0  0
   -5.2250   14.4670    0.6930 C   0  0  0  0  0  0  0  0  0  0  0  0
   -4.7550   15.3090   -1.5460 C   0  0  0  0  0  0  0  0  0  0  0  0
   -6.2980   14.2430    1.5220 N   0  0  0  0  0  0  0  0  0  0  0  0
   -5.6470   14.9860   -0.5200 C   0  0  0  0  0  0  0  0  0  0  0  0
   -7.0220   15.0620   -0.3990 N   0  0  0  0  0  0  0  0  0  0  0  0
   -7.3700   14.5990    0.8540 C   0  0  0  0  0  0  0  0  0  0  0  0
   -8.7760   14.5240    1.3550 C   0  0  0  0  0  0  0  0  0  0  0  0
   -8.7400   14.2520    2.7780 N   0  0  0  0  0  0  0  0  0  0  0  0
   -9.1520   15.2120    3.6720 C   0  0  0  0  0  0  0  0  0  0  0  0
   -9.4730   16.3340    3.3010 O   0  0  0  0  0  0  0  0  0  0  0  0
   -9.2390   14.8300    5.1500 C   0  0  0  0  0  0  0  0  0  0  0  0
   -9.5840   13.3590    5.3710 C   0  0  0  0  0  0  0  0  0  0  0  0
   -7.9930   15.2620    5.9130 C   0  0  0  0  0  0  0  0  0  0  0  0
  2  1  1  1
  2  3  1  0
  2  4  1  0
  4  5  2  3
  3  6  1  0
  4  7  1  0
  6  7  1  0
  3  8  1  0
  6  9  2  0
  5 10  1  0
  8 11  2  0
  8 12  1  0
 10 13  1  0
 11 14  1  0
 12 15  2  0
 14 16  2  0
 15 16  1  0
 13 17  1  0
 16 18  1  0
 17 19  2  0
 17 20  1  0
 20 21  2  0
 19 22  1  0
 21 23  1  0
 21 24  1  0
 22 24  2  0
 24 25  1  0
 23 26  2  0
 25 26  1  0
 26 27  1  0
 27 28  1  0
 28 29  1  0
 29 30  2  0
 29 31  1  0
 31 32  1  0
 31 33  1  0
M  END
>  <comRMSD>  (333) 
0.447745

>  <∆∆G>  (333) 
-7.487174

>  <N_constrained_atoms>  (333) 
31.0

>  <LE>  (333) 
-0.226884

>  <ref_pdb>  (333) 
x0104_0

>  <ref_mols>  (333) 
x1015_0_A_α,x0471_0_A_α

>  <%Rank>  (333) 
5.696637

>  <generation_date>  (333) 
nan

>  <method>  (333) 
nan

>  <submitter_email>  (333) 
nan

>  <original SMILES>  (333) 
CC(C)C(=O)NCc1nc2cc(CCN=C3NC(=O)N(c4ccc(Cl)cc4)C3C)ccc2[nH]1

>  <ref_url>  (333) 
nan

>  <submitter_name>  (333) 
nan

>  <submitter_institution>  (333) 
nan

$$$$
x0727_0_A_α-x0471_0_A_α
     RDKit          3D

 32 34  0  0  0  0  0  0  0  0999 V2000
    0.1320   11.4590   -5.4840 N   0  0  0  0  0  0  0  0  0  0  0  0
    0.8630   12.3730   -4.6020 C   0  0  1  0  0  0  0  0  0  0  0  0
    0.4760   13.8080   -4.9300 C   0  0  0  0  0  0  0  0  0  0  0  0
    0.6960   11.1380   -6.6980 C   0  0  0  0  0  0  0  0  0  0  0  0
    1.6450   11.7530   -7.1300 O   0  0  0  0  0  0  0  0  0  0  0  0
    0.5740   12.0410   -3.1240 C   0  0  0  0  0  0  0  0  0  0  0  0
    0.1070    9.9640   -7.4690 C   0  0  0  0  0  0  0  0  0  0  0  0
    0.1780   10.9470   -2.7230 O   0  0  0  0  0  0  0  0  0  0  0  0
    0.8250   13.1270   -2.3220 O   0  0  0  0  0  0  0  0  0  0  0  0
   -1.1770   10.3210   -8.2240 C   0  0  0  0  0  0  0  0  0  0  0  0
   -0.2360    8.7580   -6.5750 C   0  0  0  0  0  0  0  0  0  0  0  0
   -0.0760   13.3470   -1.2080 C   0  0  0  0  0  0  0  0  0  0  0  0
   -2.1020    9.1270   -8.0380 C   0  0  0  0  0  0  0  0  0  0  0  0
   -1.7410    8.5860   -6.6660 C   0  0  0  0  0  0  0  0  0  0  0  0
   -0.6480   14.7770   -1.2370 C   0  0  0  0  0  0  0  0  0  0  0  0
   -1.4630   15.1810    0.0180 C   0  0  0  0  0  0  0  0  0  0  0  0
   -2.9750   15.1480   -0.1730 C   0  0  0  0  0  0  0  0  0  0  0  0
   -3.5460   15.4470   -1.4230 C   0  0  0  0  0  0  0  0  0  0  0  0
   -3.8320   14.8080    0.9000 C   0  0  0  0  0  0  0  0  0  0  0  0
   -5.2260   14.7670    0.6890 C   0  0  0  0  0  0  0  0  0  0  0  0
   -4.9320   15.4110   -1.6440 C   0  0  0  0  0  0  0  0  0  0  0  0
   -6.2490   14.4640    1.5580 N   0  0  0  0  0  0  0  0  0  0  0  0
   -5.7400   15.0630   -0.5650 C   0  0  0  0  0  0  0  0  0  0  0  0
   -7.1040   14.9230   -0.4260 N   0  0  0  0  0  0  0  0  0  0  0  0
   -7.3710   14.5580    0.8730 C   0  0  0  0  0  0  0  0  0  0  0  0
   -8.7530   14.3160    1.3910 C   0  0  0  0  0  0  0  0  0  0  0  0
   -8.6960   14.1670    2.8330 N   0  0  0  0  0  0  0  0  0  0  0  0
   -9.1470   15.1780    3.6570 C   0  0  0  0  0  0  0  0  0  0  0  0
   -9.4740   16.2720    3.2180 O   0  0  0  0  0  0  0  0  0  0  0  0
   -9.2480   14.8320    5.1470 C   0  0  0  0  0  0  0  0  0  0  0  0
   -9.5820   13.3630    5.3840 C   0  0  0  0  0  0  0  0  0  0  0  0
   -7.9890   15.2650    5.8910 C   0  0  0  0  0  0  0  0  0  0  0  0
  1  2  1  0
  2  3  1  6
  1  4  1  0
  4  5  2  0
  2  6  1  0
  4  7  1  0
  6  8  2  0
  6  9  1  0
  7 10  1  0
  7 11  1  0
  9 12  1  0
 10 13  1  0
 11 14  1  0
 13 14  1  0
 12 15  1  0
 15 16  1  0
 16 17  1  0
 17 18  2  0
 17 19  1  0
 19 20  2  0
 18 21  1  0
 20 22  1  0
 20 23  1  0
 21 23  2  0
 23 24  1  0
 22 25  2  0
 24 25  1  0
 25 26  1  0
 26 27  1  0
 27 28  1  0
 28 29  2  0
 28 30  1  0
 30 31  1  0
 30 32  1  0
M  END
>  <comRMSD>  (334) 
0.344621

>  <∆∆G>  (334) 
-8.390609

>  <N_constrained_atoms>  (334) 
29.0

>  <LE>  (334) 
-0.262207

>  <ref_pdb>  (334) 
x0104_0

>  <ref_mols>  (334) 
x0727_0_A_α,x0471_0_A_α

>  <%Rank>  (334) 
5.713795

>  <generation_date>  (334) 
nan

>  <method>  (334) 
nan

>  <submitter_email>  (334) 
nan

>  <original SMILES>  (334) 
CC(C)C(=O)NCc1nc2cc(CCCOC(=O)[C@H](C)NC(=O)C3CCCC3)ccc2[nH]1

>  <ref_url>  (334) 
nan

>  <submitter_name>  (334) 
nan

>  <submitter_institution>  (334) 
nan

$$$$
x0253_0_A_α-x0128_0_A_α
     RDKit          3D

 34 36  0  0  0  0  0  0  0  0999 V2000
    0.4430   11.9550   -5.3130 N   0  0  0  0  0  0  0  0  0  0  0  0
    1.1220   11.6900   -6.4850 C   0  0  0  0  0  0  0  0  0  0  0  0
    2.2260   12.1610   -6.6430 O   0  0  0  0  0  0  0  0  0  0  0  0
    1.1890   12.7150   -4.3080 C   0  0  0  0  0  0  0  0  0  0  0  0
    0.6260   12.5220   -2.9020 C   0  0  0  0  0  0  0  0  0  0  0  0
    0.4990   10.7880   -7.5150 C   0  0  0  0  0  0  0  0  0  0  0  0
    0.5510   13.5240   -2.0760 N   0  0  0  0  0  0  0  0  0  0  0  0
    0.2340   11.2580   -2.6410 O   0  0  0  0  0  0  0  0  0  0  0  0
   -0.4840    9.8820   -7.0920 C   0  0  0  0  0  0  0  0  0  0  0  0
    0.8530   10.8040   -8.8760 C   0  0  0  0  0  0  0  0  0  0  0  0
    0.0070   13.4070   -0.7180 C   0  0  0  0  0  0  0  0  0  0  0  0
   -1.1010    9.0130   -8.0030 C   0  0  0  0  0  0  0  0  0  0  0  0
    0.2450    9.9440   -9.7850 C   0  0  0  0  0  0  0  0  0  0  0  0
   -2.1530    8.0480   -7.5360 C   0  0  0  0  0  0  0  0  0  0  0  0
   -0.3670   14.7610   -0.1250 C   0  0  0  0  0  0  0  0  0  0  0  0
   -0.7310    9.0510   -9.3520 C   0  0  0  0  0  0  0  0  0  0  0  0
   -1.7990   14.7770    0.4260 C   0  0  0  0  0  0  0  0  0  0  0  0
   -2.7920   14.6770   -0.7310 C   0  0  0  0  0  0  0  0  0  0  0  0
   -4.2560   14.7600   -0.3810 C   0  0  0  0  0  0  0  0  0  0  0  0
   -5.1360   14.9550   -1.4460 C   0  0  0  0  0  0  0  0  0  0  0  0
   -4.7730   14.6460    0.9280 C   0  0  0  0  0  0  0  0  0  0  0  0
   -6.5010   15.0260   -1.2330 C   0  0  0  0  0  0  0  0  0  0  0  0
   -6.1690   14.7180    1.1450 C   0  0  0  0  0  0  0  0  0  0  0  0
   -6.6710   14.6040    2.4570 N   0  0  0  0  0  0  0  0  0  0  0  0
   -7.0130   14.9030    0.0500 C   0  0  0  0  0  0  0  0  0  0  0  0
   -7.8300   15.1570    2.9820 C   0  0  0  0  0  0  0  0  0  0  0  0
   -8.8140   15.5040    2.3420 O   0  0  0  0  0  0  0  0  0  0  0  0
   -7.6950   15.2630    4.3520 N   0  0  0  0  0  0  0  0  0  0  0  0
   -8.4760   16.0650    5.2240 C   0  0  0  0  0  0  0  0  0  0  0  0
   -9.1580   17.2190    4.8450 C   0  0  0  0  0  0  0  0  0  0  0  0
   -8.5840   15.6840    6.5630 C   0  0  0  0  0  0  0  0  0  0  0  0
   -9.9100   17.9790    5.6820 N   0  0  0  0  0  0  0  0  0  0  0  0
   -9.3500   16.4500    7.4470 C   0  0  0  0  0  0  0  0  0  0  0  0
   -9.9880   17.5790    6.9620 C   0  0  0  0  0  0  0  0  0  0  0  0
  1  2  1  0
  2  3  2  0
  1  4  1  0
  4  5  1  0
  2  6  1  0
  5  7  2  3
  5  8  1  0
  6  9  2  0
  6 10  1  0
  7 11  1  0
  9 12  1  0
 10 13  2  0
 12 14  1  0
 11 15  1  0
 12 16  2  0
 13 16  1  0
 15 17  1  0
 17 18  1  0
 18 19  1  0
 19 20  2  0
 19 21  1  0
 20 22  1  0
 21 23  2  0
 23 24  1  0
 22 25  2  0
 23 25  1  0
 24 26  1  0
 26 27  2  0
 26 28  1  0
 28 29  1  0
 29 30  2  0
 29 31  1  0
 30 32  1  0
 31 33  2  0
 32 34  2  0
 33 34  1  0
M  END
>  <comRMSD>  (335) 
0.323401

>  <∆∆G>  (335) 
-11.608669

>  <N_constrained_atoms>  (335) 
30.0

>  <LE>  (335) 
-0.341431

>  <ref_pdb>  (335) 
x0104_0

>  <ref_mols>  (335) 
x0253_0_A_α,x0128_0_A_α

>  <%Rank>  (335) 
5.730954

>  <generation_date>  (335) 
nan

>  <method>  (335) 
nan

>  <submitter_email>  (335) 
nan

>  <original SMILES>  (335) 
Cc1cccc(C(=O)NCC(O)=NCCCCc2cccc(NC(=O)Nc3cccnc3)c2)c1

>  <ref_url>  (335) 
nan

>  <submitter_name>  (335) 
nan

>  <submitter_institution>  (335) 
nan

$$$$
x0681_0_A_α-x0628_0_A_α
     RDKit          3D

 25 27  0  0  0  0  0  0  0  0999 V2000
   -3.9810   15.4980   -3.0930 N   0  0  0  0  0  0  0  0  0  0  0  0
   -3.4710   14.7680   -2.0630 C   0  0  0  0  0  0  0  0  0  0  0  0
   -2.4690   13.9660   -2.1050 N   0  0  0  0  0  0  0  0  0  0  0  0
   -4.2500   14.9400   -0.7510 C   0  0  1  0  0  0  0  0  0  0  0  0
   -1.7220   13.7030   -3.3370 C   0  0  0  0  0  0  0  0  0  0  0  0
   -4.9900   13.6510   -0.5790 C   0  0  0  0  0  0  0  0  0  0  0  0
   -3.5120   15.3580    0.5250 C   0  0  0  0  0  0  0  0  0  0  0  0
   -2.3830   12.5240   -4.0790 C   0  0  0  0  0  0  0  0  0  0  0  0
   -5.6600   13.4270    0.5730 N   0  0  0  0  0  0  0  0  0  0  0  0
   -4.2250   14.9400    1.8150 C   0  0  0  0  0  0  0  0  0  0  0  0
   -5.1210   12.6340   -1.4040 N   0  0  0  0  0  0  0  0  0  0  0  0
   -5.6460   14.4050    1.6100 C   0  0  0  0  0  0  0  0  0  0  0  0
   -6.2620   12.2160    0.5110 C   0  0  0  0  0  0  0  0  0  0  0  0
   -5.9160   11.7360   -0.7320 C   0  0  0  0  0  0  0  0  0  0  0  0
   -1.5570   11.7280   -5.0580 C   0  0  0  0  0  0  0  0  0  0  0  0
   -1.8880   10.5690   -5.6030 N   0  0  0  0  0  0  0  0  0  0  0  0
   -0.3180   12.0840   -5.5480 N   0  0  0  0  0  0  0  0  0  0  0  0
    0.5010   13.2480   -5.2820 C   0  0  0  0  0  0  0  0  0  0  0  0
   -0.8320   10.2580   -6.4120 C   0  0  0  0  0  0  0  0  0  0  0  0
    0.1510   11.1590   -6.4110 N   0  0  0  0  0  0  0  0  0  0  0  0
   -0.7790    9.0240   -7.2200 C   0  0  0  0  0  0  0  0  0  0  0  0
    1.6730   12.9690   -4.3470 C   0  0  0  0  0  0  0  0  0  0  0  0
    1.2240   12.3030   -3.0670 C   0  0  0  0  0  0  0  0  0  0  0  0
    0.5300   11.2970   -2.9990 O   0  0  0  0  0  0  0  0  0  0  0  0
    1.6580   12.9460   -1.9650 O   0  0  0  0  0  0  0  0  0  0  0  0
  1  2  1  0
  2  3  2  3
  4  2  1  6
  3  5  1  0
  4  6  1  0
  4  7  1  0
  5  8  1  0
  6  9  1  0
  7 10  1  0
  6 11  2  0
  9 12  1  0
 10 12  1  0
  9 13  1  0
 11 14  1  0
 13 14  2  0
  8 15  1  0
 15 16  2  0
 15 17  1  0
 17 18  1  0
 16 19  1  0
 17 20  1  0
 19 20  2  0
 19 21  1  0
 18 22  1  0
 22 23  1  0
 23 24  2  0
 23 25  1  0
M  END
>  <comRMSD>  (336) 
0.436604

>  <∆∆G>  (336) 
-6.780905

>  <N_constrained_atoms>  (336) 
24.0

>  <LE>  (336) 
-0.271236

>  <ref_pdb>  (336) 
x0104_0

>  <ref_mols>  (336) 
x0681_0_A_α,x0628_0_A_α

>  <%Rank>  (336) 
5.748113

>  <generation_date>  (336) 
nan

>  <method>  (336) 
nan

>  <submitter_email>  (336) 
nan

>  <original SMILES>  (336) 
Cc1nc(CCN=C(N)C2CCCn3ccnc32)n(CCC(=O)O)n1

>  <ref_url>  (336) 
nan

>  <submitter_name>  (336) 
nan

>  <submitter_institution>  (336) 
nan

$$$$
3q6z_0_A_β-2fav_B_0_B_δ
     RDKit          3D

 21 22  0  0  0  0  0  0  0  0999 V2000
   -1.6390   20.4310   -8.0830 O   0  0  0  0  0  0  0  0  0  0  0  0
   -0.2830   19.6540   -7.8090 P   0  0  0  0  0  0  0  0  0  0  0  0
   -0.3230   19.0600   -6.3620 O   0  0  0  0  0  0  0  0  0  0  0  0
    0.0990   18.6630   -8.8400 O   0  0  0  0  0  0  0  0  0  0  0  0
    0.7670   20.8510   -7.7210 O   0  0  0  0  0  0  0  0  0  0  0  0
   -1.4450   18.1170   -5.7850 P   0  0  1  0  0  0  0  0  0  0  0  0
   -0.7770   16.6810   -5.5920 O   0  0  0  0  0  0  0  0  0  0  0  0
   -2.0760   18.6450   -4.5760 O   0  0  0  0  0  0  0  0  0  0  0  0
   -2.4870   17.8790   -6.9800 O   0  0  0  0  0  0  0  0  0  0  0  0
   -0.7830   16.1170   -4.2910 C   0  0  0  0  0  0  0  0  0  0  0  0
   -2.2000   15.9220   -3.7300 C   0  0  0  0  0  0  0  0  0  0  0  0
   -2.4470   14.6790   -2.8620 C   0  0  1  0  0  0  0  0  0  0  0  0
   -1.2090   14.1980   -2.2970 N   0  0  0  0  0  0  0  0  0  0  0  0
   -3.3700   14.8350   -1.7260 N   0  0  0  0  0  0  0  0  0  0  0  0
   -1.0680   14.8300   -0.9980 C   0  0  1  0  0  0  0  0  0  0  0  0
   -2.4600   15.4180   -0.6850 C   0  0  2  0  0  0  0  0  0  0  0  0
   -0.6340   13.7680   -0.1190 N   0  0  0  0  0  0  0  0  0  0  0  0
   -2.9040   15.2200    0.7970 C   0  0  1  0  0  0  0  0  0  0  0  0
   -4.2600   14.7310    0.9610 N   0  0  0  0  0  0  0  0  0  0  0  0
   -0.6820   14.2750    1.2280 C   0  0  0  0  0  0  0  0  0  0  0  0
   -2.0710   14.3560    1.6170 N   0  0  0  0  0  0  0  0  0  0  0  0
  1  2  1  0
  2  3  1  0
  2  4  2  0
  2  5  1  0
  3  6  1  0
  6  7  1  0
  6  8  2  0
  6  9  1  6
  7 10  1  0
 10 11  1  0
 12 11  1  1
 12 13  1  0
 12 14  1  0
 15 13  1  6
 16 14  1  6
 15 16  1  0
 15 17  1  0
 16 18  1  0
 18 19  1  6
 17 20  1  0
 18 21  1  0
 20 21  1  0
M  END
>  <comRMSD>  (337) 
0.414691

>  <∆∆G>  (337) 
-15.040101

>  <N_constrained_atoms>  (337) 
19.0

>  <LE>  (337) 
-0.716195

>  <ref_pdb>  (337) 
x0104_0

>  <ref_mols>  (337) 


>  <%Rank>  (337) 
5.765271

>  <generation_date>  (337) 
nan

>  <method>  (337) 
nan

>  <submitter_email>  (337) 
nan

>  <original SMILES>  (337) 
NC1NCNC2NC(CCOP(=O)(O)OP(=O)(O)O)NC12

>  <ref_url>  (337) 
nan

>  <submitter_name>  (337) 
nan

>  <submitter_institution>  (337) 
nan

$$$$
6MEA_0_B_γ-6WOJ_0_C_β
     RDKit          3D

 16 16  0  0  0  0  0  0  0  0999 V2000
   -1.8200   13.0050   -4.1700 O   0  0  0  0  0  0  0  0  0  0  0  0
   -0.5400   13.5090   -3.9560 C   0  0  2  0  0  0  0  0  0  0  0  0
   -0.4550   14.4560   -2.7590 C   0  0  0  0  0  0  0  0  0  0  0  0
   -0.0760   14.3530   -5.1100 C   0  0  2  0  0  0  0  0  0  0  0  0
    1.2830   14.0910   -5.2590 O   0  0  0  0  0  0  0  0  0  0  0  0
    0.1480   15.6200   -3.2710 O   0  0  0  0  0  0  0  0  0  0  0  0
   -0.3800   15.6890   -4.5450 C   0  0  1  0  0  0  0  0  0  0  0  0
    0.0360   16.9490   -5.3140 C   0  0  0  0  0  0  0  0  0  0  0  0
   -1.3220   18.0070   -5.6580 P   0  0  0  0  0  0  0  0  0  0  0  0
   -0.5780   19.2750   -6.0870 O   0  0  0  0  0  0  0  0  0  0  0  0
   -1.8280   19.0200   -4.4210 O   0  0  0  0  0  0  0  0  0  0  0  0
   -2.2700   17.9760   -6.9590 O   0  0  0  0  0  0  0  0  0  0  0  0
    0.0370   19.6570   -7.5090 P   0  0  0  0  0  0  0  0  0  0  0  0
   -1.2410   20.3520   -8.0050 O   0  0  0  0  0  0  0  0  0  0  0  0
    0.8460   21.1130   -7.7260 O   0  0  0  0  0  0  0  0  0  0  0  0
    0.0560   18.5410   -8.7130 O   0  0  0  0  0  0  0  0  0  0  0  0
  2  1  1  6
  2  3  1  0
  2  4  1  0
  4  5  1  1
  3  6  1  0
  4  7  1  0
  6  7  1  0
  7  8  1  6
  8  9  1  0
  9 10  1  0
  9 11  1  0
  9 12  1  0
 10 13  1  0
 13 14  1  0
 13 15  1  0
 13 16  1  0
M  CHG  2  11  -1  15  -1
M  END
>  <comRMSD>  (338) 
0.516729

>  <∆∆G>  (338) 
-8.349807

>  <N_constrained_atoms>  (338) 
16.0

>  <LE>  (338) 
-0.521863

>  <ref_pdb>  (338) 
x0104_0

>  <ref_mols>  (338) 


>  <%Rank>  (338) 
5.78243

>  <generation_date>  (338) 
nan

>  <method>  (338) 
nan

>  <submitter_email>  (338) 
nan

>  <original SMILES>  (338) 
[O-][PH](O)(O)O[PH]([O-])(O)CC1OCC(O)C1O

>  <ref_url>  (338) 
nan

>  <submitter_name>  (338) 
nan

>  <submitter_institution>  (338) 
nan

$$$$
x0626_0_A_α-x0864_0_A_α
     RDKit          3D

 25 26  0  0  0  0  0  0  0  0999 V2000
   -4.9120   14.8920    1.4510 N   0  0  0  0  0  0  0  0  0  0  0  0
   -6.0970   14.7010    0.8080 C   0  0  0  0  0  0  0  0  0  0  0  0
   -6.1380   14.8350   -0.4220 O   0  0  0  0  0  0  0  0  0  0  0  0
   -3.6860   14.8030    0.8780 C   0  0  0  0  0  0  0  0  0  0  0  0
   -7.3330   14.3400    1.6120 C   0  0  0  0  0  0  0  0  0  0  0  0
   -2.5010   14.6510    1.4390 N   0  0  0  0  0  0  0  0  0  0  0  0
   -3.7450   14.9000   -0.8240 S   0  0  0  0  0  0  0  0  0  0  0  0
   -8.6180   14.6300    0.8550 C   0  0  0  0  0  0  0  0  0  0  0  0
   -2.0540   14.7150   -0.8540 C   0  0  0  0  0  0  0  0  0  0  0  0
   -1.5620   14.6000    0.4290 C   0  0  0  0  0  0  0  0  0  0  0  0
   -0.1280   14.4330    0.7270 C   0  0  0  0  0  0  0  0  0  0  0  0
    0.7140   14.8060   -0.4950 C   0  0  0  0  0  0  0  0  0  0  0  0
    1.2430   13.6310   -1.3030 C   0  0  0  0  0  0  0  0  0  0  0  0
    0.9320   13.7480   -2.7010 N   0  0  0  0  0  0  0  0  0  0  0  0
    0.6870   12.6930   -3.3770 C   0  0  0  0  0  0  0  0  0  0  0  0
    0.3690   12.8660   -4.8440 C   0  0  0  0  0  0  0  0  0  0  0  0
    0.6920   11.4280   -2.8840 O   0  0  0  0  0  0  0  0  0  0  0  0
   -0.1770   11.6690   -5.4410 N   0  0  0  0  0  0  0  0  0  0  0  0
   -1.3460   11.1070   -4.9650 C   0  0  0  0  0  0  0  0  0  0  0  0
    0.4620   11.2120   -6.5720 C   0  0  0  0  0  0  0  0  0  0  0  0
    1.5120   11.7000   -6.9720 O   0  0  0  0  0  0  0  0  0  0  0  0
   -1.9120   10.0800   -5.6060 C   0  0  0  0  0  0  0  0  0  0  0  0
   -0.1650   10.0830   -7.2840 C   0  0  0  0  0  0  0  0  0  0  0  0
   -1.2990    9.5540   -6.8050 C   0  0  0  0  0  0  0  0  0  0  0  0
   -2.1340    8.1210   -7.6520 Br  0  0  0  0  0  0  0  0  0  0  0  0
  1  2  1  0
  2  3  2  0
  1  4  1  0
  2  5  1  0
  4  6  2  0
  4  7  1  0
  5  8  1  0
  7  9  1  0
  6 10  1  0
  9 10  2  0
 10 11  1  0
 11 12  1  0
 12 13  1  0
 13 14  1  0
 14 15  2  3
 15 16  1  0
 15 17  1  0
 16 18  1  0
 18 19  1  0
 18 20  1  0
 20 21  2  0
 19 22  2  0
 20 23  1  0
 22 24  1  0
 23 24  2  0
 24 25  1  0
M  END
>  <comRMSD>  (339) 
0.359423

>  <∆∆G>  (339) 
-9.241598

>  <N_constrained_atoms>  (339) 
23.0

>  <LE>  (339) 
-0.369664

>  <ref_pdb>  (339) 
x0104_0

>  <ref_mols>  (339) 
x0626_0_A_α,x0864_0_A_α

>  <%Rank>  (339) 
5.799588

>  <generation_date>  (339) 
nan

>  <method>  (339) 
nan

>  <submitter_email>  (339) 
nan

>  <original SMILES>  (339) 
CCC(=O)Nc1nc(CCCN=C(O)Cn2ccc(Br)cc2=O)cs1

>  <ref_url>  (339) 
nan

>  <submitter_name>  (339) 
nan

>  <submitter_institution>  (339) 
nan

$$$$
x0592_0_A_α-x0104_0_A_α
     RDKit          3D

 17 18  0  0  0  0  0  0  0  0999 V2000
   -2.7150   14.9140    1.0800 N   0  0  0  0  0  0  0  0  0  0  0  0
   -3.2660   14.9120   -0.1690 C   0  0  0  0  0  0  0  0  0  0  0  0
   -2.5590   14.9140   -1.1680 O   0  0  0  0  0  0  0  0  0  0  0  0
   -4.7100   14.8920   -0.2260 C   0  0  0  0  0  0  0  0  0  0  0  0
   -5.5290   15.1770   -1.3400 C   0  0  0  0  0  0  0  0  0  0  0  0
   -5.6140   14.5970    0.7730 C   0  0  0  0  0  0  0  0  0  0  0  0
   -6.8350   15.0700   -1.0720 N   0  0  0  0  0  0  0  0  0  0  0  0
   -6.8570   14.7150    0.2290 N   0  0  0  0  0  0  0  0  0  0  0  0
   -8.1240   14.5030    0.9110 C   0  0  0  0  0  0  0  0  0  0  0  0
   -7.9310   14.1280    2.3770 C   0  0  0  0  0  0  0  0  0  0  0  0
   -7.9680   15.3300    3.1680 O   0  0  0  0  0  0  0  0  0  0  0  0
   -7.9480   14.9510    4.5230 N   0  0  0  0  0  0  0  0  0  0  0  0
   -9.0970   15.0170    5.2660 C   0  0  0  0  0  0  0  0  0  0  0  0
   -9.1720   15.1760    6.6420 C   0  0  0  0  0  0  0  0  0  0  0  0
  -10.6750   14.9030    4.5880 S   0  0  0  0  0  0  0  0  0  0  0  0
  -10.5150   15.2030    7.1310 C   0  0  0  0  0  0  0  0  0  0  0  0
  -11.4340   15.0630    6.1130 C   0  0  0  0  0  0  0  0  0  0  0  0
  1  2  1  0
  2  3  2  0
  2  4  1  0
  4  5  1  0
  4  6  2  0
  5  7  2  0
  6  8  1  0
  7  8  1  0
  8  9  1  0
  9 10  1  0
 10 11  1  0
 11 12  1  0
 12 13  1  0
 13 14  2  0
 13 15  1  0
 14 16  1  0
 15 17  1  0
 16 17  2  0
M  END
>  <comRMSD>  (340) 
0.397319

>  <∆∆G>  (340) 
-4.025216

>  <N_constrained_atoms>  (340) 
17.0

>  <LE>  (340) 
-0.236777

>  <ref_pdb>  (340) 
x0104_0

>  <ref_mols>  (340) 
x0592_0_A_α,x0104_0_A_α

>  <%Rank>  (340) 
5.816747

>  <generation_date>  (340) 
nan

>  <method>  (340) 
nan

>  <submitter_email>  (340) 
nan

>  <original SMILES>  (340) 
NC(=O)c1cnn(CCONc2cccs2)c1

>  <ref_url>  (340) 
nan

>  <submitter_name>  (340) 
nan

>  <submitter_institution>  (340) 
nan

$$$$
x0910_0_A_α-x1015_0_A_α
     RDKit          3D

 21 23  0  0  0  0  0  0  0  0999 V2000
   -3.0340   14.6040   -1.2000 N   0  0  0  0  0  0  0  0  0  0  0  0
   -1.9930   14.7480   -0.3400 C   0  0  0  0  0  0  0  0  0  0  0  0
   -2.0470   14.7810    0.9640 N   0  0  0  0  0  0  0  0  0  0  0  0
   -0.6810   14.8870   -0.7670 N   0  0  0  0  0  0  0  0  0  0  0  0
   -0.1950   14.8980   -2.0310 N   0  0  0  0  0  0  0  0  0  0  0  0
   -0.7680   14.9420    1.4230 N   0  0  0  0  0  0  0  0  0  0  0  0
    0.0330   15.0080    0.3880 C   0  0  0  0  0  0  0  0  0  0  0  0
   -0.0350   13.7380   -2.5250 C   0  0  0  0  0  0  0  0  0  0  0  0
    0.3800   13.5050   -3.9600 C   0  0  2  0  0  0  0  0  0  0  0  0
   -0.2340   12.5520   -1.9040 N   0  0  0  0  0  0  0  0  0  0  0  0
   -0.6170   14.2750   -4.8290 C   0  0  0  0  0  0  0  0  0  0  0  0
    0.2040   12.0550   -4.0070 N   0  0  0  0  0  0  0  0  0  0  0  0
    0.1690   11.5450   -2.7060 C   0  0  0  0  0  0  0  0  0  0  0  0
    0.4270   10.4170   -2.2900 O   0  0  0  0  0  0  0  0  0  0  0  0
   -0.3010   11.3450   -5.1180 C   0  0  0  0  0  0  0  0  0  0  0  0
    0.1870   11.5720   -6.4110 C   0  0  0  0  0  0  0  0  0  0  0  0
   -1.3100   10.3810   -4.9540 C   0  0  0  0  0  0  0  0  0  0  0  0
   -0.3130   10.8570   -7.5030 C   0  0  0  0  0  0  0  0  0  0  0  0
   -1.8120    9.6650   -6.0420 C   0  0  0  0  0  0  0  0  0  0  0  0
   -1.3090    9.9050   -7.3120 C   0  0  0  0  0  0  0  0  0  0  0  0
   -1.9210    9.0190   -8.6510 Cl  0  0  0  0  0  0  0  0  0  0  0  0
  1  2  1  0
  2  3  2  0
  2  4  1  0
  4  5  1  0
  3  6  1  0
  4  7  1  0
  6  7  2  0
  5  8  2  3
  8  9  1  0
  8 10  1  0
  9 11  1  6
  9 12  1  0
 10 13  1  0
 12 13  1  0
 13 14  2  0
 12 15  1  0
 15 16  2  0
 15 17  1  0
 16 18  1  0
 17 19  2  0
 18 20  2  0
 19 20  1  0
 20 21  1  0
M  END
>  <comRMSD>  (341) 
0.48365

>  <∆∆G>  (341) 
-5.274505

>  <N_constrained_atoms>  (341) 
21.0

>  <LE>  (341) 
-0.251167

>  <ref_pdb>  (341) 
x0104_0

>  <ref_mols>  (341) 
x0910_0_A_α,x1015_0_A_α

>  <%Rank>  (341) 
5.833905

>  <generation_date>  (341) 
nan

>  <method>  (341) 
nan

>  <submitter_email>  (341) 
nan

>  <original SMILES>  (341) 
CC1C(=Nn2cnnc2N)NC(=O)N1c1ccc(Cl)cc1

>  <ref_url>  (341) 
nan

>  <submitter_name>  (341) 
nan

>  <submitter_institution>  (341) 
nan

$$$$
6mea_B_0_B_β-2bfq_0_A_β
     RDKit          3D

  9  8  0  0  0  0  0  0  0  0999 V2000
   -1.5290   20.3230   -8.0160 O   0  0  0  0  0  0  0  0  0  0  0  0
   -0.0970   19.7330   -7.6230 P   0  0  0  0  0  0  0  0  0  0  0  0
   -0.2830   18.8770   -6.3330 O   0  0  0  0  0  0  0  0  0  0  0  0
    0.9850   20.7600   -7.5920 O   0  0  0  0  0  0  0  0  0  0  0  0
    0.1180   18.6200   -8.7550 O   0  0  0  0  0  0  0  0  0  0  0  0
   -1.5850   18.1440   -5.8500 P   0  0  0  0  0  0  0  0  0  0  0  0
   -1.0670   16.8000   -5.1750 O   0  0  0  0  0  0  0  0  0  0  0  0
   -2.6190   17.9350   -6.8910 O   0  0  0  0  0  0  0  0  0  0  0  0
   -2.0350   19.0500   -4.6340 O   0  0  0  0  0  0  0  0  0  0  0  0
  1  2  1  0
  2  3  1  0
  2  4  2  0
  2  5  1  0
  3  6  1  0
  6  7  1  0
  6  8  2  0
  6  9  1  0
M  END
>  <comRMSD>  (342) 
0.558469

>  <∆∆G>  (342) 
-9.057177

>  <N_constrained_atoms>  (342) 
9.0

>  <LE>  (342) 
-1.006353

>  <ref_pdb>  (342) 
x0104_0

>  <ref_mols>  (342) 


>  <%Rank>  (342) 
5.851064

>  <generation_date>  (342) 
nan

>  <method>  (342) 
nan

>  <submitter_email>  (342) 
nan

>  <original SMILES>  (342) 
O=P(O)(O)OP(=O)(O)O

>  <ref_url>  (342) 
nan

>  <submitter_name>  (342) 
nan

>  <submitter_institution>  (342) 
nan

$$$$
x0628_0_A_α-x0371_0_A_β
     RDKit          3D

 24 26  0  0  0  0  0  0  0  0999 V2000
   -1.0390    9.1570   -7.2000 C   0  0  0  0  0  0  0  0  0  0  0  0
   -0.9890   10.3690   -6.3560 C   0  0  0  0  0  0  0  0  0  0  0  0
   -1.9800   10.7070   -5.4700 N   0  0  0  0  0  0  0  0  0  0  0  0
    0.0350   11.2230   -6.3950 N   0  0  0  0  0  0  0  0  0  0  0  0
   -0.3320   12.1420   -5.4800 N   0  0  0  0  0  0  0  0  0  0  0  0
   -1.5510   11.8340   -4.9170 C   0  0  0  0  0  0  0  0  0  0  0  0
   -2.2700   12.6340   -3.8540 C   0  0  0  0  0  0  0  0  0  0  0  0
    0.5550   13.2630   -5.2260 C   0  0  0  0  0  0  0  0  0  0  0  0
    1.6680   12.9320   -4.2370 C   0  0  0  0  0  0  0  0  0  0  0  0
   -2.9490   13.9400   -4.3390 C   0  0  0  0  0  0  0  0  0  0  0  0
    1.1300   12.2410   -3.0110 C   0  0  0  0  0  0  0  0  0  0  0  0
   -2.8560   15.1690   -3.3900 C   0  0  0  0  0  0  0  0  0  0  0  0
    0.6220   11.1330   -2.9570 O   0  0  0  0  0  0  0  0  0  0  0  0
    1.2620   12.9810   -1.8980 O   0  0  0  0  0  0  0  0  0  0  0  0
   -3.5920   15.0350   -2.0620 C   0  0  0  0  0  0  0  0  0  0  0  0
   -2.8680   14.9490   -0.8580 C   0  0  0  0  0  0  0  0  0  0  0  0
   -5.0010   14.9880   -2.0220 C   0  0  0  0  0  0  0  0  0  0  0  0
   -5.6470   14.8410   -0.7810 C   0  0  0  0  0  0  0  0  0  0  0  0
   -3.4950   14.8090    0.3860 C   0  0  0  0  0  0  0  0  0  0  0  0
   -4.8830   14.7530    0.3750 C   0  0  0  0  0  0  0  0  0  0  0  0
   -6.9880   14.7550   -0.4820 N   0  0  0  0  0  0  0  0  0  0  0  0
   -7.0530   14.6080    0.8280 C   0  0  0  0  0  0  0  0  0  0  0  0
   -5.7970   14.6040    1.3800 N   0  0  0  0  0  0  0  0  0  0  0  0
   -8.2790   14.4610    1.6450 C   0  0  0  0  0  0  0  0  0  0  0  0
  1  2  1  0
  2  3  1  0
  2  4  2  0
  4  5  1  0
  3  6  2  0
  5  6  1  0
  6  7  1  0
  5  8  1  0
  8  9  1  0
  7 10  1  0
  9 11  1  0
 10 12  1  0
 11 13  2  0
 11 14  1  0
 12 15  1  0
 15 16  2  0
 15 17  1  0
 17 18  2  0
 16 19  1  0
 18 20  1  0
 19 20  2  0
 18 21  1  0
 21 22  2  0
 20 23  1  0
 22 23  1  0
 22 24  1  0
M  END
>  <comRMSD>  (343) 
0.260576

>  <∆∆G>  (343) 
-5.369094

>  <N_constrained_atoms>  (343) 
22.0

>  <LE>  (343) 
-0.223712

>  <ref_pdb>  (343) 
x0104_0

>  <ref_mols>  (343) 
x0628_0_A_α,x0371_0_A_β

>  <%Rank>  (343) 
5.868222

>  <generation_date>  (343) 
nan

>  <method>  (343) 
nan

>  <submitter_email>  (343) 
nan

>  <original SMILES>  (343) 
Cc1nc(CCCc2ccc3[nH]c(C)nc3c2)n(CCC(=O)O)n1

>  <ref_url>  (343) 
nan

>  <submitter_name>  (343) 
nan

>  <submitter_institution>  (343) 
nan

$$$$
x0727_0_A_α-x0128_0_A_α
     RDKit          3D

 33 35  0  0  0  0  0  0  0  0999 V2000
    0.1310   11.4590   -5.5230 N   0  0  0  0  0  0  0  0  0  0  0  0
    0.8920   12.3390   -4.6270 C   0  0  1  0  0  0  0  0  0  0  0  0
    0.4760   13.7860   -4.8490 C   0  0  0  0  0  0  0  0  0  0  0  0
    0.7030   11.1420   -6.7370 C   0  0  0  0  0  0  0  0  0  0  0  0
    1.6520   11.7590   -7.1520 O   0  0  0  0  0  0  0  0  0  0  0  0
    0.6710   11.9110   -3.1640 C   0  0  0  0  0  0  0  0  0  0  0  0
    0.0800    9.9630   -7.4820 C   0  0  0  0  0  0  0  0  0  0  0  0
   -0.0120   10.9530   -2.8130 O   0  0  0  0  0  0  0  0  0  0  0  0
    1.3570   12.7260   -2.3050 O   0  0  0  0  0  0  0  0  0  0  0  0
   -1.2150   10.3250   -8.2130 C   0  0  0  0  0  0  0  0  0  0  0  0
   -0.2740    8.7780   -6.5570 C   0  0  0  0  0  0  0  0  0  0  0  0
    0.6550   13.8700   -1.7720 C   0  0  0  0  0  0  0  0  0  0  0  0
   -2.1130    9.1050   -8.0610 C   0  0  0  0  0  0  0  0  0  0  0  0
   -1.7720    8.5750   -6.6790 C   0  0  0  0  0  0  0  0  0  0  0  0
   -0.4940   13.4010   -0.8760 C   0  0  0  0  0  0  0  0  0  0  0  0
   -1.7730   14.2300   -1.0940 C   0  0  0  0  0  0  0  0  0  0  0  0
   -2.4450   14.6290    0.2290 C   0  0  0  0  0  0  0  0  0  0  0  0
   -3.9520   14.7580    0.0940 C   0  0  0  0  0  0  0  0  0  0  0  0
   -4.5980   15.0300   -1.1220 C   0  0  0  0  0  0  0  0  0  0  0  0
   -4.7310   14.5880    1.2440 C   0  0  0  0  0  0  0  0  0  0  0  0
   -5.9950   15.1160   -1.1720 C   0  0  0  0  0  0  0  0  0  0  0  0
   -6.1300   14.6720    1.2060 C   0  0  0  0  0  0  0  0  0  0  0  0
   -6.8090   14.4800    2.4340 N   0  0  0  0  0  0  0  0  0  0  0  0
   -6.7570   14.9340   -0.0120 C   0  0  0  0  0  0  0  0  0  0  0  0
   -7.8860   15.1800    2.9560 C   0  0  0  0  0  0  0  0  0  0  0  0
   -8.8530   15.5920    2.3280 O   0  0  0  0  0  0  0  0  0  0  0  0
   -7.6750   15.3360    4.3170 N   0  0  0  0  0  0  0  0  0  0  0  0
   -8.4530   16.0560    5.2610 C   0  0  0  0  0  0  0  0  0  0  0  0
   -9.1260   17.2110    4.8450 C   0  0  0  0  0  0  0  0  0  0  0  0
   -8.6090   15.7010    6.5980 C   0  0  0  0  0  0  0  0  0  0  0  0
   -9.9010   17.9880    5.6350 N   0  0  0  0  0  0  0  0  0  0  0  0
   -9.4030   16.4820    7.4420 C   0  0  0  0  0  0  0  0  0  0  0  0
  -10.0230   17.6080    6.9190 C   0  0  0  0  0  0  0  0  0  0  0  0
  1  2  1  0
  2  3  1  1
  1  4  1  0
  4  5  2  0
  2  6  1  0
  4  7  1  0
  6  8  2  0
  6  9  1  0
  7 10  1  0
  7 11  1  0
  9 12  1  0
 10 13  1  0
 11 14  1  0
 13 14  1  0
 12 15  1  0
 15 16  1  0
 16 17  1  0
 17 18  1  0
 18 19  2  0
 18 20  1  0
 19 21  1  0
 20 22  2  0
 22 23  1  0
 21 24  2  0
 22 24  1  0
 23 25  1  0
 25 26  2  0
 25 27  1  0
 27 28  1  0
 28 29  2  0
 28 30  1  0
 29 31  1  0
 30 32  2  0
 31 33  2  0
 32 33  1  0
M  END
>  <comRMSD>  (344) 
0.312463

>  <∆∆G>  (344) 
-11.829494

>  <N_constrained_atoms>  (344) 
29.0

>  <LE>  (344) 
-0.35847

>  <ref_pdb>  (344) 
x0104_0

>  <ref_mols>  (344) 
x0727_0_A_α,x0128_0_A_α

>  <%Rank>  (344) 
5.885381

>  <generation_date>  (344) 
nan

>  <method>  (344) 
nan

>  <submitter_email>  (344) 
nan

>  <original SMILES>  (344) 
C[C@H](NC(=O)C1CCCC1)C(=O)OCCCCc1cccc(NC(=O)Nc2cccnc2)c1

>  <ref_url>  (344) 
nan

>  <submitter_name>  (344) 
nan

>  <submitter_institution>  (344) 
nan

$$$$
x0228_0_B_α-x0797_0_B_α
     RDKit          3D

 21 23  0  0  0  0  0  0  0  0999 V2000
   -7.5170   25.4380  -13.5650 C   0  0  0  0  0  0  0  0  0  0  0  0
   -8.1890   26.0490  -14.6900 N   0  0  0  0  0  0  0  0  0  0  0  0
   -9.5020   25.5660  -14.9810 N   0  0  0  0  0  0  0  0  0  0  0  0
   -8.1140   24.2200  -13.2070 O   0  0  0  0  0  0  0  0  0  0  0  0
   -6.2010   25.1410  -13.9340 O   0  0  0  0  0  0  0  0  0  0  0  0
   -7.4780   26.3390  -12.3200 C   0  0  2  0  0  0  0  0  0  0  0  0
   -8.4240   25.9430  -11.2130 C   0  0  0  0  0  0  0  0  0  0  0  0
   -7.7920   27.8340  -12.4650 C   0  0  2  0  0  0  0  0  0  0  0  0
   -9.8770   24.4820  -15.7210 C   0  0  0  0  0  0  0  0  0  0  0  0
  -10.6600   26.1350  -14.5540 C   0  0  0  0  0  0  0  0  0  0  0  0
   -6.5990   28.5970  -12.9760 C   0  0  0  0  0  0  0  0  0  0  0  0
   -8.3140   27.0150  -10.2810 O   0  0  0  0  0  0  0  0  0  0  0  0
   -8.1750   28.2260  -11.0460 C   0  0  0  0  0  0  0  0  0  0  0  0
  -11.1900   24.3980  -15.7450 N   0  0  0  0  0  0  0  0  0  0  0  0
  -11.6880   25.4470  -15.0020 N   0  0  0  0  0  0  0  0  0  0  0  0
   -6.6750   29.5630  -14.0000 C   0  0  0  0  0  0  0  0  0  0  0  0
   -5.3500   28.3120  -12.4000 C   0  0  0  0  0  0  0  0  0  0  0  0
   -7.9710   29.9370  -14.6670 C   0  0  0  0  0  0  0  0  0  0  0  0
   -4.1990   28.9480  -12.8250 C   0  0  0  0  0  0  0  0  0  0  0  0
   -5.4970   30.2000  -14.4210 C   0  0  0  0  0  0  0  0  0  0  0  0
   -4.2680   29.8910  -13.8380 C   0  0  0  0  0  0  0  0  0  0  0  0
  1  2  1  0
  2  3  1  0
  1  4  1  0
  1  5  1  0
  6  1  1  6
  6  7  1  0
  6  8  1  0
  3  9  1  0
  3 10  1  0
  8 11  1  1
  7 12  1  0
  8 13  1  0
 12 13  1  0
  9 14  2  0
 10 15  2  0
 14 15  1  0
 11 16  2  0
 11 17  1  0
 16 18  1  0
 17 19  2  0
 16 20  1  0
 19 21  1  0
 20 21  2  0
M  END
>  <comRMSD>  (345) 
0.416159

>  <∆∆G>  (345) 
-2.41427

>  <N_constrained_atoms>  (345) 
21.0

>  <LE>  (345) 
-0.114965

>  <ref_pdb>  (345) 
x0104_0

>  <ref_mols>  (345) 
x0228_0_B_α,x0797_0_B_α

>  <%Rank>  (345) 
5.902539

>  <generation_date>  (345) 
nan

>  <method>  (345) 
nan

>  <submitter_email>  (345) 
nan

>  <original SMILES>  (345) 
Cc1ccccc1C1COCC1C(O)(O)Nn1cnnc1

>  <ref_url>  (345) 
nan

>  <submitter_name>  (345) 
nan

>  <submitter_institution>  (345) 
nan

$$$$
6WOJ_0_D_β-1HJZ_0_B_α
     RDKit          3D

 16 16  0  0  0  0  0  0  0  0999 V2000
   -1.5430   20.8420   -8.4720 O   0  0  0  0  0  0  0  0  0  0  0  0
   -0.8340   19.7700   -7.6160 P   0  0  0  0  0  0  0  0  0  0  0  0
   -0.3290   18.9660   -6.3820 O   0  0  0  0  0  0  0  0  0  0  0  0
   -1.8880   21.9740   -7.6520 C   0  0  0  0  0  0  0  0  0  0  0  0
    0.3380   20.9520   -7.3790 O   0  0  0  0  0  0  0  0  0  0  0  0
   -0.3860   18.6610   -8.6890 O   0  0  0  0  0  0  0  0  0  0  0  0
   -3.3110   22.2250   -7.6920 N   0  0  0  0  0  0  0  0  0  0  0  0
   -1.2810   17.9520   -5.7010 P   0  0  0  0  0  0  0  0  0  0  0  0
   -3.6410   22.6890   -9.0130 C   0  0  0  0  0  0  0  0  0  0  0  0
   -3.7310   23.2430   -6.7610 C   0  0  0  0  0  0  0  0  0  0  0  0
   -0.0390   16.8310   -5.6390 O   0  0  0  0  0  0  0  0  0  0  0  0
   -1.5550   18.9520   -4.4510 O   0  0  0  0  0  0  0  0  0  0  0  0
   -2.3750   17.9090   -6.8850 O   0  0  0  0  0  0  0  0  0  0  0  0
   -5.0790   23.1110   -9.1720 C   0  0  0  0  0  0  0  0  0  0  0  0
   -5.1880   23.6190   -6.9640 C   0  0  0  0  0  0  0  0  0  0  0  0
   -5.3970   24.0740   -8.2580 O   0  0  0  0  0  0  0  0  0  0  0  0
  1  2  1  0
  2  3  1  0
  1  4  1  0
  2  5  1  0
  2  6  1  0
  4  7  1  0
  3  8  1  0
  7  9  1  0
  7 10  1  0
  8 11  1  0
  8 12  1  0
  8 13  1  0
  9 14  1  0
 10 15  1  0
 14 16  1  0
 15 16  1  0
M  CHG  2   5  -1  12  -1
M  END
>  <comRMSD>  (346) 
0.594759

>  <∆∆G>  (346) 
-10.779743

>  <N_constrained_atoms>  (346) 
16.0

>  <LE>  (346) 
-0.673734

>  <ref_pdb>  (346) 
x0104_0

>  <ref_mols>  (346) 


>  <%Rank>  (346) 
5.919698

>  <generation_date>  (346) 
nan

>  <method>  (346) 
nan

>  <submitter_email>  (346) 
nan

>  <original SMILES>  (346) 
[O-][PH](O)(O)O[PH]([O-])(O)OCN1CCOCC1

>  <ref_url>  (346) 
nan

>  <submitter_name>  (346) 
nan

>  <submitter_institution>  (346) 
nan

$$$$
x0253_0_A_α-x0689_0_A_α
     RDKit          3D

 23 24  0  0  0  0  0  0  0  0999 V2000
    0.3070   11.8990   -5.5360 N   0  0  0  0  0  0  0  0  0  0  0  0
    1.0820   11.6030   -6.6150 C   0  0  0  0  0  0  0  0  0  0  0  0
    2.2110   12.0520   -6.6610 O   0  0  0  0  0  0  0  0  0  0  0  0
    0.7400   13.0350   -4.7650 C   0  0  0  0  0  0  0  0  0  0  0  0
    0.7080   12.7850   -3.2750 C   0  0  0  0  0  0  0  0  0  0  0  0
    0.4990   10.7180   -7.6570 C   0  0  0  0  0  0  0  0  0  0  0  0
    0.8310   13.7910   -2.4920 N   0  0  0  0  0  0  0  0  0  0  0  0
    0.5550   11.5000   -2.8610 O   0  0  0  0  0  0  0  0  0  0  0  0
   -0.4740    9.8090   -7.2270 C   0  0  0  0  0  0  0  0  0  0  0  0
    0.8670   10.7560   -9.0050 C   0  0  0  0  0  0  0  0  0  0  0  0
    0.8110   13.5130   -1.0860 C   0  0  0  0  0  0  0  0  0  0  0  0
   -1.0790    8.9370   -8.1420 C   0  0  0  0  0  0  0  0  0  0  0  0
    0.2660    9.8900   -9.9190 C   0  0  0  0  0  0  0  0  0  0  0  0
   -2.1220    7.9670   -7.6730 C   0  0  0  0  0  0  0  0  0  0  0  0
   -0.7040    8.9830   -9.4870 C   0  0  0  0  0  0  0  0  0  0  0  0
   -0.3640   14.0080   -0.3270 C   0  0  0  0  0  0  0  0  0  0  0  0
   -1.5070   14.4000   -0.9620 C   0  0  0  0  0  0  0  0  0  0  0  0
   -0.4060   14.0960    1.0540 C   0  0  0  0  0  0  0  0  0  0  0  0
   -2.5940   14.8280   -0.3140 N   0  0  0  0  0  0  0  0  0  0  0  0
   -1.4730   14.5210    1.7520 N   0  0  0  0  0  0  0  0  0  0  0  0
   -2.5370   14.8690    1.0240 C   0  0  0  0  0  0  0  0  0  0  0  0
   -3.6470   15.3000    1.7190 N   0  0  0  0  0  0  0  0  0  0  0  0
   -4.7890   15.3720    0.8490 C   0  0  0  0  0  0  0  0  0  0  0  0
  1  2  1  0
  2  3  2  0
  1  4  1  0
  4  5  1  0
  2  6  1  0
  5  7  2  3
  5  8  1  0
  6  9  2  0
  6 10  1  0
  7 11  1  0
  9 12  1  0
 10 13  2  0
 12 14  1  0
 12 15  2  0
 13 15  1  0
 11 16  1  0
 16 17  2  0
 16 18  1  0
 17 19  1  0
 18 20  2  0
 19 21  2  0
 20 21  1  0
 21 22  1  0
 22 23  1  0
M  END
>  <comRMSD>  (347) 
0.446816

>  <∆∆G>  (347) 
-8.44024

>  <N_constrained_atoms>  (347) 
22.0

>  <LE>  (347) 
-0.366967

>  <ref_pdb>  (347) 
x0104_0

>  <ref_mols>  (347) 
x0253_0_A_α,x0689_0_A_α

>  <%Rank>  (347) 
5.936857

>  <generation_date>  (347) 
nan

>  <method>  (347) 
nan

>  <submitter_email>  (347) 
nan

>  <original SMILES>  (347) 
CNc1ncc(CN=C(O)CNC(=O)c2cccc(C)c2)cn1

>  <ref_url>  (347) 
nan

>  <submitter_name>  (347) 
nan

>  <submitter_institution>  (347) 
nan

$$$$
6mea_B_0_B_β-2BFQ_1_A_β
     RDKit          3D

  9  8  0  0  0  0  0  0  0  0999 V2000
   -1.5290   20.3230   -8.0160 O   0  0  0  0  0  0  0  0  0  0  0  0
   -0.0970   19.7330   -7.6230 P   0  0  0  0  0  0  0  0  0  0  0  0
   -0.2830   18.8770   -6.3330 O   0  0  0  0  0  0  0  0  0  0  0  0
    0.9850   20.7600   -7.5920 O   0  0  0  0  0  0  0  0  0  0  0  0
    0.1180   18.6200   -8.7550 O   0  0  0  0  0  0  0  0  0  0  0  0
   -1.5850   18.1440   -5.8500 P   0  0  0  0  0  0  0  0  0  0  0  0
   -1.0670   16.8000   -5.1750 O   0  0  0  0  0  0  0  0  0  0  0  0
   -2.6190   17.9350   -6.8910 O   0  0  0  0  0  0  0  0  0  0  0  0
   -2.0350   19.0500   -4.6340 O   0  0  0  0  0  0  0  0  0  0  0  0
  1  2  1  0
  2  3  1  0
  2  4  2  0
  2  5  1  0
  3  6  1  0
  6  7  1  0
  6  8  2  0
  6  9  1  0
M  END
>  <comRMSD>  (348) 
0.560371

>  <∆∆G>  (348) 
-9.057177

>  <N_constrained_atoms>  (348) 
9.0

>  <LE>  (348) 
-1.006353

>  <ref_pdb>  (348) 
x0104_0

>  <ref_mols>  (348) 


>  <%Rank>  (348) 
5.954015

>  <generation_date>  (348) 
nan

>  <method>  (348) 
nan

>  <submitter_email>  (348) 
nan

>  <original SMILES>  (348) 
O=P(O)(O)OP(=O)(O)O

>  <ref_url>  (348) 
nan

>  <submitter_name>  (348) 
nan

>  <submitter_institution>  (348) 
nan

$$$$
x0548_0_B_α-x0600_0_A_α
     RDKit          3D

 32 34  0  0  0  0  0  0  0  0999 V2000
   -6.1670   34.5240    8.8240 C   0  0  0  0  0  0  0  0  0  0  0  0
   -7.6180   34.6490    8.6680 N   0  0  0  0  0  0  0  0  0  0  0  0
   -8.3630   34.4790    9.9530 C   0  0  0  0  0  0  0  0  0  0  0  0
   -8.1520   35.5000    7.6810 C   0  0  0  0  0  0  0  0  0  0  0  0
   -8.0480   33.1700   10.6970 C   0  0  0  0  0  0  0  0  0  0  0  0
   -7.4160   36.3020    6.8540 C   0  0  0  0  0  0  0  0  0  0  0  0
   -9.6290   35.5490    7.5380 C   0  0  0  0  0  0  0  0  0  0  0  0
   -9.2660   32.2330   10.8170 C   0  0  0  0  0  0  0  0  0  0  0  0
   -8.0930   37.1620    5.9110 C   0  0  0  0  0  0  0  0  0  0  0  0
  -10.2480   36.1040    6.4790 C   0  0  0  0  0  0  0  0  0  0  0  0
   -8.9460   30.8220   10.6230 N   0  0  0  0  0  0  0  0  0  0  0  0
   -9.4080   36.6670    5.4050 C   0  0  1  0  0  0  0  0  0  0  0  0
   -7.7670   38.3430    5.3840 C   0  0  0  0  0  0  0  0  0  0  0  0
   -6.6470   39.3160    5.4390 C   0  0  0  0  0  0  0  0  0  0  0  0
   -9.8550   29.9140   10.6160 C   0  0  0  0  0  0  0  0  0  0  0  0
   -9.9460   37.7620    4.5790 N   0  0  0  0  0  0  0  0  0  0  0  0
   -8.9720   38.6250    4.5880 C   0  0  0  0  0  0  0  0  0  0  0  0
   -6.0220   39.5370    6.7520 N   0  0  0  0  0  0  0  0  0  0  0  0
  -11.1280   30.3160   10.8120 O   0  0  0  0  0  0  0  0  0  0  0  0
   -9.7130   28.4150   10.4090 C   0  0  0  0  0  0  0  0  0  0  0  0
   -6.9680   40.2320    7.6350 C   0  0  0  0  0  0  0  0  0  0  0  0
   -4.7880   40.3260    6.6240 C   0  0  0  0  0  0  0  0  0  0  0  0
  -10.8830   27.7250   10.8310 O   0  0  0  0  0  0  0  0  0  0  0  0
  -10.9330   27.4090   12.1480 C   0  0  0  0  0  0  0  0  0  0  0  0
  -11.9780   26.5710   12.5300 C   0  0  0  0  0  0  0  0  0  0  0  0
  -10.0270   27.8650   13.0950 C   0  0  0  0  0  0  0  0  0  0  0  0
  -12.1220   26.1880   13.8690 C   0  0  0  0  0  0  0  0  0  0  0  0
  -10.1630   27.4850   14.4310 C   0  0  0  0  0  0  0  0  0  0  0  0
  -11.2090   26.6480   14.8280 C   0  0  0  0  0  0  0  0  0  0  0  0
  -11.3080   26.2780   16.2730 C   0  0  0  0  0  0  0  0  0  0  0  0
  -12.5350   25.5540   16.7560 C   0  0  0  0  0  0  0  0  0  0  0  0
  -10.3980   26.5740   17.0460 O   0  0  0  0  0  0  0  0  0  0  0  0
  1  2  1  0
  2  3  1  0
  2  4  1  0
  3  5  1  0
  4  6  2  0
  4  7  1  0
  5  8  1  0
  6  9  1  0
  7 10  2  0
  8 11  1  0
  9 12  1  0
 12 10  1  1
  9 13  2  0
 13 14  1  0
 11 15  2  3
 12 16  1  0
 13 17  1  0
 16 17  2  0
 14 18  1  0
 15 19  1  0
 15 20  1  0
 18 21  1  0
 18 22  1  0
 20 23  1  0
 23 24  1  0
 24 25  2  0
 24 26  1  0
 25 27  1  0
 26 28  2  0
 27 29  2  0
 28 29  1  0
 29 30  1  0
 30 31  1  0
 30 32  2  0
M  END
>  <comRMSD>  (349) 
0.317029

>  <∆∆G>  (349) 
-6.115443

>  <N_constrained_atoms>  (349) 
29.0

>  <LE>  (349) 
-0.191108

>  <ref_pdb>  (349) 
x0104_0

>  <ref_mols>  (349) 
x0548_0_B_α,x0600_0_A_α

>  <%Rank>  (349) 
5.971174

>  <generation_date>  (349) 
nan

>  <method>  (349) 
nan

>  <submitter_email>  (349) 
nan

>  <original SMILES>  (349) 
CC(=O)c1ccc(OCC(O)=NCCCN(C)C2=CC3=C(CN(C)C)C=NC3C=C2)cc1

>  <ref_url>  (349) 
nan

>  <submitter_name>  (349) 
nan

>  <submitter_institution>  (349) 
nan

$$$$
x0950_0_A_α-x0592_0_A_α
     RDKit          3D

 19 19  0  0  0  0  0  0  0  0999 V2000
    3.0280   12.4310   -4.3350 C   0  0  0  0  0  0  0  0  0  0  0  0
    1.5390   12.7250   -4.2610 C   0  0  1  0  0  0  0  0  0  0  0  0
    0.9270   12.2280   -5.4560 O   0  0  0  0  0  0  0  0  0  0  0  0
    0.8940   12.0910   -3.0230 C   0  0  0  0  0  0  0  0  0  0  0  0
    0.6000   10.9030   -2.9530 O   0  0  0  0  0  0  0  0  0  0  0  0
    0.6940   13.0010   -2.0330 O   0  0  0  0  0  0  0  0  0  0  0  0
   -0.6680   13.0950   -1.5690 C   0  0  0  0  0  0  0  0  0  0  0  0
   -1.0640   14.5070   -1.1320 C   0  0  0  0  0  0  0  0  0  0  0  0
   -2.5280   14.6210   -1.1560 N   0  0  0  0  0  0  0  0  0  0  0  0
   -3.2150   14.7840   -0.0860 C   0  0  0  0  0  0  0  0  0  0  0  0
   -2.8140   14.8950    1.2170 N   0  0  0  0  0  0  0  0  0  0  0  0
   -4.6600   14.8510   -0.2490 C   0  0  0  0  0  0  0  0  0  0  0  0
   -5.4650   15.2140   -1.3570 C   0  0  0  0  0  0  0  0  0  0  0  0
   -5.5870   14.5440    0.7270 C   0  0  0  0  0  0  0  0  0  0  0  0
   -6.7780   15.1380   -1.1000 N   0  0  0  0  0  0  0  0  0  0  0  0
   -6.8190   14.7260    0.1820 N   0  0  0  0  0  0  0  0  0  0  0  0
   -8.0880   14.5170    0.8540 C   0  0  0  0  0  0  0  0  0  0  0  0
   -7.8810   14.0810    2.3040 C   0  0  0  0  0  0  0  0  0  0  0  0
   -7.1410   15.0450    3.0480 O   0  0  0  0  0  0  0  0  0  0  0  0
  2  1  1  6
  2  3  1  0
  2  4  1  0
  4  5  2  0
  4  6  1  0
  6  7  1  0
  7  8  1  0
  8  9  1  0
  9 10  2  3
 10 11  1  0
 10 12  1  0
 12 13  1  0
 12 14  2  0
 13 15  2  0
 14 16  1  0
 15 16  1  0
 16 17  1  0
 17 18  1  0
 18 19  1  0
M  END
>  <comRMSD>  (350) 
0.188618

>  <∆∆G>  (350) 
-7.644413

>  <N_constrained_atoms>  (350) 
17.0

>  <LE>  (350) 
-0.402338

>  <ref_pdb>  (350) 
x0104_0

>  <ref_mols>  (350) 
x0950_0_A_α,x0592_0_A_α

>  <%Rank>  (350) 
5.988332

>  <generation_date>  (350) 
nan

>  <method>  (350) 
nan

>  <submitter_email>  (350) 
nan

>  <original SMILES>  (350) 
C[C@@H](O)C(=O)OCCN=C(N)c1cnn(CCO)c1

>  <ref_url>  (350) 
nan

>  <submitter_name>  (350) 
nan

>  <submitter_institution>  (350) 
nan

$$$$
x0855_0_A_α-x0722_0_A_α
     RDKit          3D

 24 25  0  0  0  0  0  0  0  0999 V2000
    1.9740   12.6490   -2.5200 O   0  0  0  0  0  0  0  0  0  0  0  0
    0.7120   12.2730   -3.0240 C   0  0  0  0  0  0  0  0  0  0  0  0
    0.5390   12.5040   -4.5410 C   0  0  0  0  0  0  0  0  0  0  0  0
    0.6400   10.8600   -2.8380 O   0  0  0  0  0  0  0  0  0  0  0  0
   -0.3920   12.8540   -2.1290 C   0  0  0  0  0  0  0  0  0  0  0  0
   -0.1830   14.2970   -1.6640 C   0  0  0  0  0  0  0  0  0  0  0  0
   -0.4770   11.6610   -5.1120 N   0  0  0  0  0  0  0  0  0  0  0  0
   -1.4960   15.0890   -1.6110 C   0  0  0  0  0  0  0  0  0  0  0  0
   -0.3320   10.7360   -6.1000 C   0  0  0  0  0  0  0  0  0  0  0  0
   -1.7390   11.7580   -4.6400 N   0  0  0  0  0  0  0  0  0  0  0  0
   -1.5750   10.1920   -6.2660 C   0  0  0  0  0  0  0  0  0  0  0  0
   -2.4090   10.8480   -5.3540 C   0  0  0  0  0  0  0  0  0  0  0  0
   -2.2410   15.0140   -0.3150 C   0  0  0  0  0  0  0  0  0  0  0  0
   -2.0950    8.8490   -7.4460 Br  0  0  0  0  0  0  0  0  0  0  0  0
   -3.5980   15.2030   -0.0580 C   0  0  0  0  0  0  0  0  0  0  0  0
   -1.6720   14.7240    0.9100 N   0  0  0  0  0  0  0  0  0  0  0  0
   -0.2870   14.4300    1.2220 C   0  0  0  0  0  0  0  0  0  0  0  0
   -4.7220   15.5320   -0.9940 C   0  0  0  0  0  0  0  0  0  0  0  0
   -2.5600   14.7210    1.9100 N   0  0  0  0  0  0  0  0  0  0  0  0
   -3.7200   15.0110    1.3280 C   0  0  0  0  0  0  0  0  0  0  0  0
   -4.9630   15.0980    2.1080 C   0  0  0  0  0  0  0  0  0  0  0  0
   -5.9890   14.7330   -0.7230 C   0  0  0  0  0  0  0  0  0  0  0  0
   -7.1180   15.1860   -0.8830 O   0  0  0  0  0  0  0  0  0  0  0  0
   -5.8330   13.4490   -0.2750 N   0  0  0  0  0  0  0  0  0  0  0  0
  2  1  1  0
  2  3  1  0
  2  4  1  0
  2  5  1  0
  5  6  1  0
  3  7  1  0
  6  8  1  0
  7  9  1  0
  7 10  1  0
  9 11  2  0
 10 12  2  0
 11 12  1  0
  8 13  1  0
 11 14  1  0
 13 15  2  0
 13 16  1  0
 16 17  1  0
 15 18  1  0
 16 19  1  0
 15 20  1  0
 19 20  2  0
 20 21  1  0
 18 22  1  0
 22 23  2  0
 22 24  1  0
M  END
>  <comRMSD>  (351) 
0.309496

>  <∆∆G>  (351) 
-7.601429

>  <N_constrained_atoms>  (351) 
22.0

>  <LE>  (351) 
-0.316726

>  <ref_pdb>  (351) 
x0104_0

>  <ref_mols>  (351) 
x0855_0_A_α,x0722_0_A_α

>  <%Rank>  (351) 
6.005491

>  <generation_date>  (351) 
nan

>  <method>  (351) 
nan

>  <submitter_email>  (351) 
nan

>  <original SMILES>  (351) 
Cc1nn(C)c(CCCC(O)(O)Cn2cc(Br)cn2)c1CC(N)=O

>  <ref_url>  (351) 
nan

>  <submitter_name>  (351) 
nan

>  <submitter_institution>  (351) 
nan

$$$$
x0253_0_A_α-x0438_0_A_α
     RDKit          3D

 31 33  0  0  0  0  0  0  0  0999 V2000
    0.4480   11.9580   -5.3850 N   0  0  0  0  0  0  0  0  0  0  0  0
    1.0120   11.7400   -6.6020 C   0  0  0  0  0  0  0  0  0  0  0  0
    2.1270   12.1750   -6.7770 O   0  0  0  0  0  0  0  0  0  0  0  0
    1.3780   12.2760   -4.3200 C   0  0  0  0  0  0  0  0  0  0  0  0
    0.6980   12.2780   -2.9710 C   0  0  0  0  0  0  0  0  0  0  0  0
    0.3050   10.9120   -7.6390 C   0  0  0  0  0  0  0  0  0  0  0  0
    0.7800   13.3220   -2.2330 N   0  0  0  0  0  0  0  0  0  0  0  0
    0.0300   11.1560   -2.6390 O   0  0  0  0  0  0  0  0  0  0  0  0
   -0.8680   10.2040   -7.3400 C   0  0  0  0  0  0  0  0  0  0  0  0
    0.8230   10.8140   -8.9380 C   0  0  0  0  0  0  0  0  0  0  0  0
    0.1110   13.3840   -0.9440 C   0  0  0  0  0  0  0  0  0  0  0  0
   -1.4860    9.3990   -8.3000 C   0  0  0  0  0  0  0  0  0  0  0  0
    0.2070   10.0250   -9.9010 C   0  0  0  0  0  0  0  0  0  0  0  0
   -2.7230    8.6310   -7.9330 C   0  0  0  0  0  0  0  0  0  0  0  0
   -0.5640   14.7430   -0.8410 C   0  0  0  0  0  0  0  0  0  0  0  0
   -0.9450    9.3130   -9.5810 C   0  0  0  0  0  0  0  0  0  0  0  0
   -1.5420   14.8430    0.3290 C   0  0  0  0  0  0  0  0  0  0  0  0
   -3.0180   14.9020   -0.0180 C   0  0  0  0  0  0  0  0  0  0  0  0
   -3.5220   15.2960   -1.2780 C   0  0  0  0  0  0  0  0  0  0  0  0
   -3.9080   14.5340    0.9810 C   0  0  0  0  0  0  0  0  0  0  0  0
   -5.2840   14.5500    0.7290 C   0  0  0  0  0  0  0  0  0  0  0  0
   -4.9030   15.3240   -1.5500 C   0  0  0  0  0  0  0  0  0  0  0  0
   -6.3260   14.2230    1.5530 N   0  0  0  0  0  0  0  0  0  0  0  0
   -5.7510   14.9380   -0.5140 C   0  0  0  0  0  0  0  0  0  0  0  0
   -7.1230   14.8280   -0.4070 N   0  0  0  0  0  0  0  0  0  0  0  0
   -7.4250   14.3870    0.8660 C   0  0  0  0  0  0  0  0  0  0  0  0
   -8.8080   14.1370    1.3470 C   0  0  0  0  0  0  0  0  0  0  0  0
   -9.4140   15.3490    2.5130 S   0  0  0  0  0  0  0  0  0  0  0  0
   -8.1860   15.4990    3.7960 C   0  0  0  0  0  0  0  0  0  0  0  0
  -10.5800   14.7520    3.1450 O   0  0  0  0  0  0  0  0  0  0  0  0
   -9.5730   16.6150    1.8390 O   0  0  0  0  0  0  0  0  0  0  0  0
  1  2  1  0
  2  3  2  0
  1  4  1  0
  4  5  1  0
  2  6  1  0
  5  7  2  3
  5  8  1  0
  6  9  2  0
  6 10  1  0
  7 11  1  0
  9 12  1  0
 10 13  2  0
 12 14  1  0
 11 15  1  0
 12 16  2  0
 13 16  1  0
 15 17  1  0
 17 18  1  0
 18 19  2  0
 18 20  1  0
 20 21  2  0
 19 22  1  0
 21 23  1  0
 21 24  1  0
 22 24  2  0
 24 25  1  0
 23 26  2  0
 25 26  1  0
 26 27  1  0
 28 27  1  0
 28 29  1  0
 28 30  2  0
 28 31  2  0
M  END
>  <comRMSD>  (352) 
0.35017

>  <∆∆G>  (352) 
-9.317594

>  <N_constrained_atoms>  (352) 
28.0

>  <LE>  (352) 
-0.300568

>  <ref_pdb>  (352) 
x0104_0

>  <ref_mols>  (352) 
x0253_0_A_α,x0438_0_A_α

>  <%Rank>  (352) 
6.022649

>  <generation_date>  (352) 
nan

>  <method>  (352) 
nan

>  <submitter_email>  (352) 
nan

>  <original SMILES>  (352) 
Cc1cccc(C(=O)NCC(O)=NCCCc2ccc3[nH]c(CS(C)(=O)=O)nc3c2)c1

>  <ref_url>  (352) 
nan

>  <submitter_name>  (352) 
nan

>  <submitter_institution>  (352) 
nan

$$$$
x0950_1_A_α-x0290_0_A_α
     RDKit          3D

 21 21  0  0  0  0  0  0  0  0999 V2000
    0.9140   13.9090   -4.9330 C   0  0  0  0  0  0  0  0  0  0  0  0
    1.3250   12.5050   -4.5230 C   0  0  2  0  0  0  0  0  0  0  0  0
    0.7710   11.6360   -5.5130 O   0  0  0  0  0  0  0  0  0  0  0  0
    0.8570   12.0570   -3.1230 C   0  0  0  0  0  0  0  0  0  0  0  0
    0.1530   11.0630   -2.9520 O   0  0  0  0  0  0  0  0  0  0  0  0
    1.3050   12.8370   -2.1010 O   0  0  0  0  0  0  0  0  0  0  0  0
    1.7380   14.1660   -2.4240 C   0  0  0  0  0  0  0  0  0  0  0  0
    0.5300   15.1030   -2.6060 C   0  0  0  0  0  0  0  0  0  0  0  0
   -0.8610   14.4920   -2.3730 C   0  0  0  0  0  0  0  0  0  0  0  0
   -1.2290   14.5140   -0.9180 C   0  0  0  0  0  0  0  0  0  0  0  0
   -0.2240   14.4460    0.0370 C   0  0  0  0  0  0  0  0  0  0  0  0
   -2.5640   14.6020   -0.4880 C   0  0  0  0  0  0  0  0  0  0  0  0
   -0.5730   14.4680    1.3640 C   0  0  0  0  0  0  0  0  0  0  0  0
   -2.8330   14.6180    0.8730 C   0  0  0  0  0  0  0  0  0  0  0  0
   -4.1240   14.6960    1.3870 N   0  0  0  0  0  0  0  0  0  0  0  0
   -1.8460   14.5540    1.8030 N   0  0  0  0  0  0  0  0  0  0  0  0
   -5.3020   14.4630    0.7160 C   0  0  0  0  0  0  0  0  0  0  0  0
   -5.4710   14.5210   -0.4970 O   0  0  0  0  0  0  0  0  0  0  0  0
   -6.4630   14.0850    1.6530 C   0  0  0  0  0  0  0  0  0  0  0  0
   -7.6980   13.7750    0.8870 N   0  0  0  0  0  0  0  0  0  0  0  0
   -8.5640   14.9390    0.7670 C   0  0  0  0  0  0  0  0  0  0  0  0
  2  1  1  6
  2  3  1  0
  2  4  1  0
  4  5  2  0
  4  6  1  0
  6  7  1  0
  7  8  1  0
  8  9  1  0
  9 10  1  0
 10 11  2  0
 10 12  1  0
 11 13  1  0
 12 14  2  0
 14 15  1  0
 13 16  2  0
 14 16  1  0
 15 17  1  0
 17 18  2  0
 17 19  1  0
 19 20  1  0
 20 21  1  0
M  END
>  <comRMSD>  (353) 
0.263338

>  <∆∆G>  (353) 
-8.515419

>  <N_constrained_atoms>  (353) 
19.0

>  <LE>  (353) 
-0.405496

>  <ref_pdb>  (353) 
x0104_0

>  <ref_mols>  (353) 
x0950_1_A_α,x0290_0_A_α

>  <%Rank>  (353) 
6.039808

>  <generation_date>  (353) 
nan

>  <method>  (353) 
nan

>  <submitter_email>  (353) 
nan

>  <original SMILES>  (353) 
CNCC(=O)Nc1cc(CCCOC(=O)[C@H](C)O)ccn1

>  <ref_url>  (353) 
nan

>  <submitter_name>  (353) 
nan

>  <submitter_institution>  (353) 
nan

$$$$
x0628_0_A_α-x1012_0_A_α
     RDKit          3D

 21 22  0  0  0  0  0  0  0  0999 V2000
   -0.9500    8.8810   -7.5480 C   0  0  0  0  0  0  0  0  0  0  0  0
   -0.7870   10.0410   -6.6550 C   0  0  0  0  0  0  0  0  0  0  0  0
   -1.7410   10.4080   -5.7610 N   0  0  0  0  0  0  0  0  0  0  0  0
    0.3020   10.8010   -6.6690 N   0  0  0  0  0  0  0  0  0  0  0  0
    0.0410   11.7130   -5.7120 N   0  0  0  0  0  0  0  0  0  0  0  0
   -1.2220   11.4620   -5.1660 C   0  0  0  0  0  0  0  0  0  0  0  0
   -1.9240   12.2080   -4.1040 C   0  0  0  0  0  0  0  0  0  0  0  0
    1.0990   12.7150   -5.4830 C   0  0  0  0  0  0  0  0  0  0  0  0
    1.8270   12.7100   -4.1050 C   0  0  0  0  0  0  0  0  0  0  0  0
    0.8280   12.7010   -2.9670 C   0  0  0  0  0  0  0  0  0  0  0  0
    0.2640   11.4160   -2.8100 O   0  0  0  0  0  0  0  0  0  0  0  0
    1.5180   13.0550   -1.7840 O   0  0  0  0  0  0  0  0  0  0  0  0
   -0.0210   13.8610   -3.5220 C   0  0  0  0  0  0  0  0  0  0  0  0
   -1.3290   14.3770   -2.9650 C   0  0  0  0  0  0  0  0  0  0  0  0
    0.8540   15.1070   -3.6680 C   0  0  0  0  0  0  0  0  0  0  0  0
   -1.9630   15.1930   -4.1100 C   0  0  0  0  0  0  0  0  0  0  0  0
    0.3960   15.8540   -4.8940 C   0  0  0  0  0  0  0  0  0  0  0  0
   -1.0320   16.1570   -4.7760 N   0  0  0  0  0  0  0  0  0  0  0  0
   -1.3340   17.4830   -4.8190 C   0  0  0  0  0  0  0  0  0  0  0  0
   -0.3010   18.3320   -4.6860 N   0  0  0  0  0  0  0  0  0  0  0  0
   -2.4400   17.9240   -4.9440 O   0  0  0  0  0  0  0  0  0  0  0  0
  1  2  1  0
  2  3  1  0
  2  4  2  0
  4  5  1  0
  3  6  2  0
  5  6  1  0
  6  7  1  0
  5  8  1  0
  8  9  1  0
  9 10  1  0
 10 11  1  0
 10 12  1  0
 10 13  1  0
 13 14  1  0
 13 15  1  0
 14 16  1  0
 15 17  1  0
 16 18  1  0
 17 18  1  0
 18 19  1  0
 19 20  1  0
 19 21  2  0
M  END
>  <comRMSD>  (354) 
0.502981

>  <∆∆G>  (354) 
-5.94418

>  <N_constrained_atoms>  (354) 
21.0

>  <LE>  (354) 
-0.283056

>  <ref_pdb>  (354) 
x0104_0

>  <ref_mols>  (354) 
x0628_0_A_α,x1012_0_A_α

>  <%Rank>  (354) 
6.056966

>  <generation_date>  (354) 
nan

>  <method>  (354) 
nan

>  <submitter_email>  (354) 
nan

>  <original SMILES>  (354) 
Cc1nc(C)n(CCC(O)(O)C2CCN(C(N)=O)CC2)n1

>  <ref_url>  (354) 
nan

>  <submitter_name>  (354) 
nan

>  <submitter_institution>  (354) 
nan

$$$$
5CB5_0_J_γ-6MEA_0_A_β
     RDKit          3D

 16 16  0  0  0  0  0  0  0  0999 V2000
   -0.3600   12.4650   -3.8470 O   0  0  0  0  0  0  0  0  0  0  0  0
   -0.8110   13.7750   -3.9280 C   0  0  1  0  0  0  0  0  0  0  0  0
   -0.3560   14.6360   -2.7490 C   0  0  0  0  0  0  0  0  0  0  0  0
   -0.2300   14.5010   -5.1030 C   0  0  2  0  0  0  0  0  0  0  0  0
    1.1280   14.1790   -5.1980 O   0  0  0  0  0  0  0  0  0  0  0  0
    0.0920   15.8380   -3.3310 O   0  0  0  0  0  0  0  0  0  0  0  0
   -0.4950   15.8560   -4.5750 C   0  0  1  0  0  0  0  0  0  0  0  0
   -0.1310   17.0910   -5.3910 C   0  0  0  0  0  0  0  0  0  0  0  0
   -1.5300   18.1080   -5.6170 P   0  0  0  0  0  0  0  0  0  0  0  0
   -0.9300   19.3920   -6.1790 O   0  0  0  0  0  0  0  0  0  0  0  0
   -2.5020   18.0400   -7.0100 O   0  0  0  0  0  0  0  0  0  0  0  0
   -2.0500   19.0230   -4.4340 O   0  0  0  0  0  0  0  0  0  0  0  0
   -0.1710   19.6760   -7.5430 P   0  0  0  0  0  0  0  0  0  0  0  0
   -1.3950   20.3640   -8.1630 O   0  0  0  0  0  0  0  0  0  0  0  0
    0.6700   21.1120   -7.7470 O   0  0  0  0  0  0  0  0  0  0  0  0
   -0.0720   18.5160   -8.7010 O   0  0  0  0  0  0  0  0  0  0  0  0
  2  1  1  1
  2  3  1  0
  2  4  1  0
  4  5  1  1
  3  6  1  0
  4  7  1  0
  6  7  1  0
  7  8  1  6
  8  9  1  0
  9 10  1  0
  9 11  1  0
  9 12  1  0
 10 13  1  0
 13 14  1  0
 13 15  1  0
 13 16  1  0
M  CHG  2  11  -1  15  -1
M  END
>  <comRMSD>  (355) 
0.52001

>  <∆∆G>  (355) 
-8.294469

>  <N_constrained_atoms>  (355) 
16.0

>  <LE>  (355) 
-0.518404

>  <ref_pdb>  (355) 
x0104_0

>  <ref_mols>  (355) 


>  <%Rank>  (355) 
6.074125

>  <generation_date>  (355) 
nan

>  <method>  (355) 
nan

>  <submitter_email>  (355) 
nan

>  <original SMILES>  (355) 
[O-][PH](O)(O)O[PH]([O-])(O)CC1OCC(O)C1O

>  <ref_url>  (355) 
nan

>  <submitter_name>  (355) 
nan

>  <submitter_institution>  (355) 
nan

$$$$
2FAV_0_B_β-5CB5_0_E_γ
     RDKit          3D

 16 16  0  0  0  0  0  0  0  0999 V2000
   -1.2490   20.9990   -8.2320 O   0  0  0  0  0  0  0  0  0  0  0  0
   -0.3490   19.6840   -7.7810 P   0  0  0  0  0  0  0  0  0  0  0  0
   -0.2760   19.2270   -6.2080 O   0  0  0  0  0  0  0  0  0  0  0  0
    0.8650   20.5960   -7.5840 O   0  0  0  0  0  0  0  0  0  0  0  0
    0.2570   18.7090   -8.8710 O   0  0  0  0  0  0  0  0  0  0  0  0
   -1.4090   18.1410   -5.8870 P   0  0  0  0  0  0  0  0  0  0  0  0
   -0.3910   16.9320   -5.9010 O   0  0  0  0  0  0  0  0  0  0  0  0
   -1.7870   17.6890   -4.3780 O   0  0  0  0  0  0  0  0  0  0  0  0
   -2.4410   17.5840   -6.9900 O   0  0  0  0  0  0  0  0  0  0  0  0
   -0.0470   16.0300   -4.8680 C   0  0  1  0  0  0  0  0  0  0  0  0
   -0.9450   16.0750   -3.8060 O   0  0  0  0  0  0  0  0  0  0  0  0
    0.1010   14.5850   -5.2320 C   0  0  1  0  0  0  0  0  0  0  0  0
    1.2140   13.9690   -4.6230 O   0  0  0  0  0  0  0  0  0  0  0  0
   -1.0070   14.7920   -3.2470 C   0  0  0  0  0  0  0  0  0  0  0  0
   -1.1120   13.9780   -4.5280 C   0  0  2  0  0  0  0  0  0  0  0  0
   -0.8890   12.6360   -4.3390 O   0  0  0  0  0  0  0  0  0  0  0  0
  1  2  1  0
  2  3  1  0
  2  4  1  0
  2  5  1  0
  3  6  1  0
  6  7  1  0
  6  8  1  0
  6  9  1  0
 10  7  1  6
 10 11  1  0
 10 12  1  0
 12 13  1  1
 11 14  1  0
 12 15  1  0
 14 15  1  0
 15 16  1  1
M  CHG  2   4  -1   8  -1
M  END
>  <comRMSD>  (356) 
0.475303

>  <∆∆G>  (356) 
-6.854427

>  <N_constrained_atoms>  (356) 
16.0

>  <LE>  (356) 
-0.428402

>  <ref_pdb>  (356) 
x0104_0

>  <ref_mols>  (356) 


>  <%Rank>  (356) 
6.091283

>  <generation_date>  (356) 
nan

>  <method>  (356) 
nan

>  <submitter_email>  (356) 
nan

>  <original SMILES>  (356) 
[O-][PH](O)(O)O[PH]([O-])(O)OC1OCC(O)C1O

>  <ref_url>  (356) 
nan

>  <submitter_name>  (356) 
nan

>  <submitter_institution>  (356) 
nan

$$$$
6mea_B_0_B_β-2BFQ_1_A_γ
     RDKit          3D

 16 16  0  0  0  0  0  0  0  0999 V2000
   -1.6890   20.5280   -8.1800 O   0  0  0  0  0  0  0  0  0  0  0  0
   -0.2890   19.9370   -7.7190 P   0  0  0  0  0  0  0  0  0  0  0  0
   -0.5430   19.3810   -6.2720 O   0  0  0  0  0  0  0  0  0  0  0  0
    0.8190   20.9160   -7.7780 O   0  0  0  0  0  0  0  0  0  0  0  0
   -0.1140   18.6850   -8.6970 O   0  0  0  0  0  0  0  0  0  0  0  0
   -1.3960   18.1230   -5.8830 P   0  0  2  0  0  0  0  0  0  0  0  0
   -0.2980   17.0160   -5.5100 O   0  0  0  0  0  0  0  0  0  0  0  0
   -2.5280   17.7440   -6.7740 O   0  0  0  0  0  0  0  0  0  0  0  0
   -1.8650   18.6430   -4.4470 O   0  0  0  0  0  0  0  0  0  0  0  0
   -0.6740   16.0050   -4.6060 C   0  0  2  0  0  0  0  0  0  0  0  0
   -0.0680   16.0720   -3.3110 O   0  0  0  0  0  0  0  0  0  0  0  0
   -0.3540   14.5710   -5.0070 C   0  0  1  0  0  0  0  0  0  0  0  0
    1.0390   14.2000   -4.9460 O   0  0  0  0  0  0  0  0  0  0  0  0
   -0.4420   14.8190   -2.6950 C   0  0  0  0  0  0  0  0  0  0  0  0
   -1.0300   13.9580   -3.8150 C   0  0  2  0  0  0  0  0  0  0  0  0
   -0.7280   12.5860   -3.7130 O   0  0  0  0  0  0  0  0  0  0  0  0
  1  2  1  0
  2  3  1  0
  2  4  2  0
  2  5  1  0
  3  6  1  0
  6  7  1  0
  6  8  2  0
  6  9  1  1
 10  7  1  6
 10 11  1  0
 10 12  1  0
 12 13  1  1
 11 14  1  0
 12 15  1  0
 14 15  1  0
 15 16  1  1
M  END
>  <comRMSD>  (357) 
0.56238

>  <∆∆G>  (357) 
-9.633007

>  <N_constrained_atoms>  (357) 
16.0

>  <LE>  (357) 
-0.602063

>  <ref_pdb>  (357) 
x0104_0

>  <ref_mols>  (357) 


>  <%Rank>  (357) 
6.108442

>  <generation_date>  (357) 
nan

>  <method>  (357) 
nan

>  <submitter_email>  (357) 
nan

>  <original SMILES>  (357) 
O=P(O)(O)OP(=O)(O)OC1OCC(O)C1O

>  <ref_url>  (357) 
nan

>  <submitter_name>  (357) 
nan

>  <submitter_institution>  (357) 
nan

$$$$
x0626_0_A_α-x0465_0_A_α
     RDKit          3D

 26 27  0  0  0  0  0  0  0  0999 V2000
   -4.9170   14.8800    1.4800 N   0  0  0  0  0  0  0  0  0  0  0  0
   -6.0960   14.7040    0.8270 C   0  0  0  0  0  0  0  0  0  0  0  0
   -6.1330   14.8540   -0.4030 O   0  0  0  0  0  0  0  0  0  0  0  0
   -3.6840   14.8200    0.9190 C   0  0  0  0  0  0  0  0  0  0  0  0
   -7.3340   14.3390    1.6210 C   0  0  0  0  0  0  0  0  0  0  0  0
   -2.4960   14.7010    1.4870 N   0  0  0  0  0  0  0  0  0  0  0  0
   -3.7390   14.9130   -0.7850 S   0  0  0  0  0  0  0  0  0  0  0  0
   -8.6120   14.6160    0.8510 C   0  0  0  0  0  0  0  0  0  0  0  0
   -2.0440   14.7790   -0.8020 C   0  0  0  0  0  0  0  0  0  0  0  0
   -1.5500   14.6810    0.4840 C   0  0  0  0  0  0  0  0  0  0  0  0
   -0.1030   14.5610    0.7630 C   0  0  0  0  0  0  0  0  0  0  0  0
    0.6030   14.4210   -0.5790 C   0  0  0  0  0  0  0  0  0  0  0  0
    0.1870   13.1460   -1.2990 C   0  0  0  0  0  0  0  0  0  0  0  0
    0.3900   13.3940   -2.6840 N   0  0  0  0  0  0  0  0  0  0  0  0
    0.5540   12.4380   -3.4880 C   0  0  0  0  0  0  0  0  0  0  0  0
    0.7850   12.5350   -4.9740 C   0  0  1  0  0  0  0  0  0  0  0  0
    0.5330   11.1850   -2.9720 O   0  0  0  0  0  0  0  0  0  0  0  0
    2.1930   13.0750   -5.1080 C   0  0  0  0  0  0  0  0  0  0  0  0
    0.6740   11.2990   -5.6430 O   0  0  0  0  0  0  0  0  0  0  0  0
   -0.5180   10.6570   -5.7960 C   0  0  0  0  0  0  0  0  0  0  0  0
   -0.7220    9.5760   -6.6480 C   0  0  0  0  0  0  0  0  0  0  0  0
   -1.5900   11.1320   -5.0330 C   0  0  0  0  0  0  0  0  0  0  0  0
    0.2780    9.0910   -7.3990 F   0  0  0  0  0  0  0  0  0  0  0  0
   -1.9670    8.9640   -6.7470 C   0  0  0  0  0  0  0  0  0  0  0  0
   -2.8480   10.5220   -5.1280 C   0  0  0  0  0  0  0  0  0  0  0  0
   -3.0330    9.4380   -5.9860 C   0  0  0  0  0  0  0  0  0  0  0  0
  1  2  1  0
  2  3  2  0
  1  4  1  0
  2  5  1  0
  4  6  2  0
  4  7  1  0
  5  8  1  0
  7  9  1  0
  6 10  1  0
  9 10  2  0
 10 11  1  0
 11 12  1  0
 12 13  1  0
 13 14  1  0
 14 15  2  3
 15 16  1  0
 15 17  1  0
 16 18  1  1
 16 19  1  0
 19 20  1  0
 20 21  2  0
 20 22  1  0
 21 23  1  0
 21 24  1  0
 22 25  2  0
 24 26  2  0
 25 26  1  0
M  END
>  <comRMSD>  (358) 
0.359707

>  <∆∆G>  (358) 
-8.064091

>  <N_constrained_atoms>  (358) 
24.0

>  <LE>  (358) 
-0.310157

>  <ref_pdb>  (358) 
x0104_0

>  <ref_mols>  (358) 
x0626_0_A_α,x0465_0_A_α

>  <%Rank>  (358) 
6.125601

>  <generation_date>  (358) 
nan

>  <method>  (358) 
nan

>  <submitter_email>  (358) 
nan

>  <original SMILES>  (358) 
CCC(=O)Nc1nc(CCCN=C(O)[C@@H](C)Oc2ccccc2F)cs1

>  <ref_url>  (358) 
nan

>  <submitter_name>  (358) 
nan

>  <submitter_institution>  (358) 
nan

$$$$
x0465_0_A_α-x0159_0_B_β
     RDKit          3D

 24 26  0  0  0  0  0  0  0  0999 V2000
    1.8600   13.5270   -4.9490 C   0  0  0  0  0  0  0  0  0  0  0  0
    0.7740   12.4920   -4.6910 C   0  0  1  0  0  0  0  0  0  0  0  0
    0.7410   11.4770   -5.7020 O   0  0  0  0  0  0  0  0  0  0  0  0
    0.7380   12.0460   -3.2230 C   0  0  0  0  0  0  0  0  0  0  0  0
    0.9460   12.7490   -2.2450 O   0  0  0  0  0  0  0  0  0  0  0  0
    0.4560   10.7400   -3.0370 O   0  0  0  0  0  0  0  0  0  0  0  0
   -0.3450   10.7110   -6.0310 C   0  0  0  0  0  0  0  0  0  0  0  0
   -0.3530    9.5970   -6.9070 C   0  0  0  0  0  0  0  0  0  0  0  0
   -1.5340   11.1130   -5.4130 C   0  0  0  0  0  0  0  0  0  0  0  0
    0.8470    9.2180   -7.5160 O   0  0  0  0  0  0  0  0  0  0  0  0
   -1.5640    8.9220   -7.1190 C   0  0  0  0  0  0  0  0  0  0  0  0
   -2.7280   10.4330   -5.6370 C   0  0  0  0  0  0  0  0  0  0  0  0
    0.9050    8.5860   -8.8330 C   0  0  0  0  0  0  0  0  0  0  0  0
   -2.7440    9.3360   -6.4870 C   0  0  0  0  0  0  0  0  0  0  0  0
    1.0610    9.6170   -9.8600 N   0  0  0  0  0  0  0  0  0  0  0  0
    1.9330    9.6020  -10.9210 C   0  0  0  0  0  0  0  0  0  0  0  0
    1.8720   10.6900  -11.7540 N   0  0  0  0  0  0  0  0  0  0  0  0
    2.8650    8.7550  -11.3480 N   0  0  0  0  0  0  0  0  0  0  0  0
    2.7980   10.5660  -12.7530 C   0  0  0  0  0  0  0  0  0  0  0  0
    3.4180    9.3460  -12.4870 C   0  0  0  0  0  0  0  0  0  0  0  0
    3.1290   11.4010  -13.8230 C   0  0  0  0  0  0  0  0  0  0  0  0
    4.4480    8.9240  -13.3520 C   0  0  0  0  0  0  0  0  0  0  0  0
    4.1530   10.9630  -14.6660 C   0  0  0  0  0  0  0  0  0  0  0  0
    4.8050    9.7470  -14.4380 C   0  0  0  0  0  0  0  0  0  0  0  0
  2  1  1  1
  2  3  1  0
  2  4  1  0
  4  5  2  0
  4  6  1  0
  3  7  1  0
  7  8  2  0
  7  9  1  0
  8 10  1  0
  8 11  1  0
  9 12  2  0
 10 13  1  0
 11 14  2  0
 12 14  1  0
 13 15  1  0
 15 16  1  0
 16 17  1  0
 16 18  2  0
 17 19  1  0
 18 20  1  0
 19 20  2  0
 19 21  1  0
 20 22  1  0
 21 23  2  0
 22 24  2  0
 23 24  1  0
M  END
>  <comRMSD>  (359) 
0.416288

>  <∆∆G>  (359) 
-6.09672

>  <N_constrained_atoms>  (359) 
23.0

>  <LE>  (359) 
-0.25403

>  <ref_pdb>  (359) 
x0104_0

>  <ref_mols>  (359) 
x0465_0_A_α,x0159_0_B_β

>  <%Rank>  (359) 
6.142759

>  <generation_date>  (359) 
nan

>  <method>  (359) 
nan

>  <submitter_email>  (359) 
nan

>  <original SMILES>  (359) 
C[C@@H](Oc1ccccc1OCNc1nc2ccccc2[nH]1)C(=O)O

>  <ref_url>  (359) 
nan

>  <submitter_name>  (359) 
nan

>  <submitter_institution>  (359) 
nan

$$$$
x0895_1_A_α-x0104_0_A_α
     RDKit          3D

 16 17  0  0  0  0  0  0  0  0999 V2000
   -1.6900   14.7330    1.5530 O   0  0  0  0  0  0  0  0  0  0  0  0
   -2.7920   14.7240    1.0100 C   0  0  0  0  0  0  0  0  0  0  0  0
   -3.0930   14.6130   -0.4830 C   0  0  0  0  0  0  0  0  0  0  0  0
   -4.0050   14.8090    1.6370 N   0  0  0  0  0  0  0  0  0  0  0  0
   -4.5110   14.9550   -0.5110 N   0  0  0  0  0  0  0  0  0  0  0  0
   -5.0310   14.8310    0.7450 C   0  0  0  0  0  0  0  0  0  0  0  0
   -6.2540   14.7390    1.1580 N   0  0  0  0  0  0  0  0  0  0  0  0
   -6.4450   14.6170    2.6160 C   0  0  0  0  0  0  0  0  0  0  0  0
   -7.8580   15.0050    3.1050 C   0  0  0  0  0  0  0  0  0  0  0  0
   -7.8910   15.0100    4.4920 N   0  0  0  0  0  0  0  0  0  0  0  0
   -8.7790   15.2640    2.3270 O   0  0  0  0  0  0  0  0  0  0  0  0
   -9.0270   15.0560    5.2840 C   0  0  0  0  0  0  0  0  0  0  0  0
   -9.2000   15.1870    6.6470 C   0  0  0  0  0  0  0  0  0  0  0  0
  -10.5140   14.9290    4.4590 S   0  0  0  0  0  0  0  0  0  0  0  0
  -10.5800   15.1790    7.0140 C   0  0  0  0  0  0  0  0  0  0  0  0
  -11.4070   15.0440    5.9200 C   0  0  0  0  0  0  0  0  0  0  0  0
  1  2  2  0
  2  3  1  0
  2  4  1  0
  3  5  1  0
  4  6  1  0
  5  6  1  0
  6  7  2  3
  7  8  1  0
  8  9  1  0
  9 10  1  0
  9 11  2  0
 10 12  1  0
 12 13  2  0
 12 14  1  0
 13 15  1  0
 14 16  1  0
 15 16  2  0
M  END
>  <comRMSD>  (360) 
0.265496

>  <∆∆G>  (360) 
-6.196454

>  <N_constrained_atoms>  (360) 
15.0

>  <LE>  (360) 
-0.387278

>  <ref_pdb>  (360) 
x0104_0

>  <ref_mols>  (360) 
x0895_1_A_α,x0104_0_A_α

>  <%Rank>  (360) 
6.159918

>  <generation_date>  (360) 
nan

>  <method>  (360) 
nan

>  <submitter_email>  (360) 
nan

>  <original SMILES>  (360) 
O=C1CNC(=NCC(=O)Nc2cccs2)N1

>  <ref_url>  (360) 
nan

>  <submitter_name>  (360) 
nan

>  <submitter_institution>  (360) 
nan

$$$$
x0950_1_A_α-x0722_0_A_α
     RDKit          3D

 20 20  0  0  0  0  0  0  0  0999 V2000
    1.0330   13.9830   -4.7780 C   0  0  0  0  0  0  0  0  0  0  0  0
    1.3680   12.5180   -4.5720 C   0  0  2  0  0  0  0  0  0  0  0  0
    0.6380   11.7540   -5.5370 O   0  0  0  0  0  0  0  0  0  0  0  0
    1.0590   12.0250   -3.1510 C   0  0  0  0  0  0  0  0  0  0  0  0
    0.3530   11.0500   -2.8940 O   0  0  0  0  0  0  0  0  0  0  0  0
    1.6730   12.7950   -2.2170 O   0  0  0  0  0  0  0  0  0  0  0  0
    0.8230   13.7930   -1.6440 C   0  0  0  0  0  0  0  0  0  0  0  0
   -0.5990   13.2340   -1.5800 C   0  0  0  0  0  0  0  0  0  0  0  0
   -1.6840   14.2980   -1.7020 C   0  0  0  0  0  0  0  0  0  0  0  0
   -2.2730   14.6560   -0.3800 C   0  0  0  0  0  0  0  0  0  0  0  0
   -3.5410   15.1400   -0.0580 C   0  0  0  0  0  0  0  0  0  0  0  0
   -1.5920   14.5610    0.8160 N   0  0  0  0  0  0  0  0  0  0  0  0
   -0.2450   14.1390    1.1000 C   0  0  0  0  0  0  0  0  0  0  0  0
   -4.7010   15.4490   -0.9610 C   0  0  0  0  0  0  0  0  0  0  0  0
   -2.3180   14.9300    1.8430 N   0  0  0  0  0  0  0  0  0  0  0  0
   -3.4750   15.2850    1.3410 C   0  0  0  0  0  0  0  0  0  0  0  0
   -4.4710   15.7710    2.2690 C   0  0  0  0  0  0  0  0  0  0  0  0
   -5.9580   14.6830   -0.5920 C   0  0  0  0  0  0  0  0  0  0  0  0
   -7.0920   15.1300   -0.7440 O   0  0  0  0  0  0  0  0  0  0  0  0
   -5.7770   13.4360   -0.0710 N   0  0  0  0  0  0  0  0  0  0  0  0
  2  1  1  1
  2  3  1  0
  2  4  1  0
  4  5  2  0
  4  6  1  0
  6  7  1  0
  7  8  1  0
  8  9  1  0
  9 10  1  0
 10 11  2  0
 10 12  1  0
 12 13  1  0
 11 14  1  0
 12 15  1  0
 11 16  1  0
 15 16  2  0
 16 17  1  0
 14 18  1  0
 18 19  2  0
 18 20  1  0
M  END
>  <comRMSD>  (361) 
0.232649

>  <∆∆G>  (361) 
-8.166878

>  <N_constrained_atoms>  (361) 
18.0

>  <LE>  (361) 
-0.408344

>  <ref_pdb>  (361) 
x0104_0

>  <ref_mols>  (361) 
x0950_1_A_α,x0722_0_A_α

>  <%Rank>  (361) 
6.177076

>  <generation_date>  (361) 
nan

>  <method>  (361) 
nan

>  <submitter_email>  (361) 
nan

>  <original SMILES>  (361) 
Cc1nn(C)c(CCCOC(=O)[C@H](C)O)c1CC(N)=O

>  <ref_url>  (361) 
nan

>  <submitter_name>  (361) 
nan

>  <submitter_institution>  (361) 
nan

$$$$
x1015_0_A_α-x0905_0_A_α
     RDKit          3D

 24 26  0  0  0  0  0  0  0  0999 V2000
   -1.5830   14.2840   -3.9700 C   0  0  0  0  0  0  0  0  0  0  0  0
   -0.1940   13.6690   -3.8240 C   0  0  2  0  0  0  0  0  0  0  0  0
   -0.2210   12.1970   -3.8700 N   0  0  0  0  0  0  0  0  0  0  0  0
    0.3410   13.7780   -2.3990 C   0  0  0  0  0  0  0  0  0  0  0  0
    0.1840   14.5600   -1.3960 N   0  0  0  0  0  0  0  0  0  0  0  0
    0.4440   11.6880   -2.7390 C   0  0  0  0  0  0  0  0  0  0  0  0
    1.1560   12.7300   -2.2400 N   0  0  0  0  0  0  0  0  0  0  0  0
   -0.5730   11.4330   -5.0100 C   0  0  0  0  0  0  0  0  0  0  0  0
    0.4310   10.5630   -2.2390 O   0  0  0  0  0  0  0  0  0  0  0  0
   -0.7050   15.7110   -1.3400 C   0  0  0  0  0  0  0  0  0  0  0  0
    0.0220   11.6610   -6.2660 C   0  0  0  0  0  0  0  0  0  0  0  0
   -1.5280   10.4140   -4.9170 C   0  0  0  0  0  0  0  0  0  0  0  0
   -1.5190   15.5890   -0.0340 C   0  0  0  0  0  0  0  0  0  0  0  0
   -0.3320   10.8920   -7.3810 C   0  0  0  0  0  0  0  0  0  0  0  0
   -1.8840    9.6440   -6.0260 C   0  0  0  0  0  0  0  0  0  0  0  0
   -1.2850    9.8850   -7.2560 C   0  0  0  0  0  0  0  0  0  0  0  0
   -3.0100   15.4540   -0.2560 C   0  0  0  0  0  0  0  0  0  0  0  0
   -1.7300    8.9340   -8.6140 Cl  0  0  0  0  0  0  0  0  0  0  0  0
   -3.8980   15.2540    0.8030 C   0  0  0  0  0  0  0  0  0  0  0  0
   -3.5640   15.5190   -1.5400 C   0  0  0  0  0  0  0  0  0  0  0  0
   -5.2360   15.1240    0.6510 N   0  0  0  0  0  0  0  0  0  0  0  0
   -4.9370   15.3860   -1.7140 C   0  0  0  0  0  0  0  0  0  0  0  0
   -5.7190   15.1930   -0.6010 C   0  0  0  0  0  0  0  0  0  0  0  0
   -7.0700   15.0560   -0.7110 O   0  0  0  0  0  0  0  0  0  0  0  0
  2  1  1  1
  2  3  1  0
  2  4  1  0
  4  5  2  3
  3  6  1  0
  4  7  1  0
  6  7  1  0
  3  8  1  0
  6  9  2  0
  5 10  1  0
  8 11  2  0
  8 12  1  0
 10 13  1  0
 11 14  1  0
 12 15  2  0
 14 16  2  0
 15 16  1  0
 13 17  1  0
 16 18  1  0
 17 19  2  0
 17 20  1  0
 19 21  1  0
 20 22  2  0
 21 23  2  0
 22 23  1  0
 23 24  1  0
M  END
>  <comRMSD>  (362) 
0.317064

>  <∆∆G>  (362) 
-7.803539

>  <N_constrained_atoms>  (362) 
22.0

>  <LE>  (362) 
-0.325147

>  <ref_pdb>  (362) 
x0104_0

>  <ref_mols>  (362) 
x1015_0_A_α,x0905_0_A_α

>  <%Rank>  (362) 
6.194235

>  <generation_date>  (362) 
nan

>  <method>  (362) 
nan

>  <submitter_email>  (362) 
nan

>  <original SMILES>  (362) 
CC1C(=NCCc2ccc(O)nc2)NC(=O)N1c1ccc(Cl)cc1

>  <ref_url>  (362) 
nan

>  <submitter_name>  (362) 
nan

>  <submitter_institution>  (362) 
nan

$$$$
x0631_0_A_β-x0159_0_B_β
     RDKit          3D

 18 20  0  0  0  0  0  0  0  0999 V2000
   -0.0070    8.2760   -7.1310 C   0  0  0  0  0  0  0  0  0  0  0  0
   -1.4260    8.1130   -7.6910 C   0  0  0  0  0  0  0  0  0  0  0  0
   -2.3740    9.2680   -7.4220 C   0  0  0  0  0  0  0  0  0  0  0  0
    0.7940    9.3500   -7.7560 N   0  0  0  0  0  0  0  0  0  0  0  0
    0.6430    9.4480   -9.2110 N   0  0  0  0  0  0  0  0  0  0  0  0
    0.3760   10.6150   -7.2530 N   0  0  0  0  0  0  0  0  0  0  0  0
    1.6120    8.6340   -9.8750 N   0  0  0  0  0  0  0  0  0  0  0  0
    0.8830   10.8940   -9.4360 C   0  0  0  0  0  0  0  0  0  0  0  0
    1.0660   11.5020   -8.1130 N   0  0  0  0  0  0  0  0  0  0  0  0
    2.2640    9.0940  -10.9980 C   0  0  0  0  0  0  0  0  0  0  0  0
    1.9480   10.2570  -11.6780 N   0  0  0  0  0  0  0  0  0  0  0  0
    3.2830    8.4960  -11.5820 N   0  0  0  0  0  0  0  0  0  0  0  0
    2.8210   10.4070  -12.7360 C   0  0  0  0  0  0  0  0  0  0  0  0
    3.6420    9.2900  -12.6500 C   0  0  0  0  0  0  0  0  0  0  0  0
    2.9650   11.3880  -13.7260 C   0  0  0  0  0  0  0  0  0  0  0  0
    4.6690    9.1150  -13.5910 C   0  0  0  0  0  0  0  0  0  0  0  0
    3.9990   11.1980  -14.6560 C   0  0  0  0  0  0  0  0  0  0  0  0
    4.8370   10.0800  -14.5910 C   0  0  0  0  0  0  0  0  0  0  0  0
  1  2  1  0
  2  3  1  0
  1  4  1  0
  4  5  1  0
  4  6  1  0
  5  7  1  0
  5  8  1  0
  6  9  1  0
  8  9  1  0
  7 10  1  0
 10 11  1  0
 10 12  2  0
 11 13  1  0
 12 14  1  0
 13 14  2  0
 13 15  1  0
 14 16  1  0
 15 17  2  0
 16 18  2  0
 17 18  1  0
M  END
>  <comRMSD>  (363) 
0.397102

>  <∆∆G>  (363) 
-3.222823

>  <N_constrained_atoms>  (363) 
18.0

>  <LE>  (363) 
-0.179046

>  <ref_pdb>  (363) 
x0104_0

>  <ref_mols>  (363) 
x0631_0_A_β,x0159_0_B_β

>  <%Rank>  (363) 
6.211393

>  <generation_date>  (363) 
nan

>  <method>  (363) 
nan

>  <submitter_email>  (363) 
nan

>  <original SMILES>  (363) 
CCCN1NNCN1Nc1nc2ccccc2[nH]1

>  <ref_url>  (363) 
nan

>  <submitter_name>  (363) 
nan

>  <submitter_institution>  (363) 
nan

$$$$
x0837_0_A_α-x0104_0_A_α
     RDKit          3D

 17 18  0  0  0  0  0  0  0  0999 V2000
   -7.7250   14.6440    0.0640 O   0  0  0  0  0  0  0  0  0  0  0  0
   -6.5060   14.7590    0.1540 C   0  0  0  0  0  0  0  0  0  0  0  0
   -5.8470   14.9870    1.3520 N   0  0  0  0  0  0  0  0  0  0  0  0
   -5.6510   14.6630   -1.0580 C   0  0  0  0  0  0  0  0  0  0  0  0
   -6.4470   14.5910    2.6340 C   0  0  0  0  0  0  0  0  0  0  0  0
   -4.4840   15.2580    1.3850 C   0  0  0  0  0  0  0  0  0  0  0  0
   -4.3290   14.8770   -0.9790 C   0  0  0  0  0  0  0  0  0  0  0  0
   -3.1540   14.7210   -2.6720 I   0  0  0  0  0  0  0  0  0  0  0  0
   -7.8650   15.0390    3.0420 C   0  0  0  0  0  0  0  0  0  0  0  0
   -3.7310   15.2110    0.2900 C   0  0  0  0  0  0  0  0  0  0  0  0
   -7.9260   15.0710    4.4350 N   0  0  0  0  0  0  0  0  0  0  0  0
   -8.7560   15.3120    2.2350 O   0  0  0  0  0  0  0  0  0  0  0  0
   -9.0620   15.0920    5.2280 C   0  0  0  0  0  0  0  0  0  0  0  0
   -9.2240   15.2030    6.5920 C   0  0  0  0  0  0  0  0  0  0  0  0
  -10.5520   14.9570    4.4130 S   0  0  0  0  0  0  0  0  0  0  0  0
  -10.6020   15.1760    6.9750 C   0  0  0  0  0  0  0  0  0  0  0  0
  -11.4320   15.0450    5.8840 C   0  0  0  0  0  0  0  0  0  0  0  0
  1  2  2  0
  2  3  1  0
  2  4  1  0
  3  5  1  0
  3  6  1  0
  4  7  2  0
  7  8  1  0
  5  9  1  0
  6 10  2  0
  7 10  1  0
  9 11  1  0
  9 12  2  0
 11 13  1  0
 13 14  2  0
 13 15  1  0
 14 16  1  0
 15 17  1  0
 16 17  2  0
M  END
>  <comRMSD>  (364) 
0.271943

>  <∆∆G>  (364) 
-5.571937

>  <N_constrained_atoms>  (364) 
16.0

>  <LE>  (364) 
-0.327761

>  <ref_pdb>  (364) 
x0104_0

>  <ref_mols>  (364) 
x0837_0_A_α,x0104_0_A_α

>  <%Rank>  (364) 
6.228552

>  <generation_date>  (364) 
nan

>  <method>  (364) 
nan

>  <submitter_email>  (364) 
nan

>  <original SMILES>  (364) 
O=C(Cn1ccc(I)cc1=O)Nc1cccs1

>  <ref_url>  (364) 
nan

>  <submitter_name>  (364) 
nan

>  <submitter_institution>  (364) 
nan

$$$$
x0727_0_A_α-x0592_0_A_α
     RDKit          3D

 27 28  0  0  0  0  0  0  0  0999 V2000
    0.1420   11.4290   -5.6060 N   0  0  0  0  0  0  0  0  0  0  0  0
    0.8940   12.3830   -4.7990 C   0  0  1  0  0  0  0  0  0  0  0  0
    0.4110   13.8040   -5.0350 C   0  0  0  0  0  0  0  0  0  0  0  0
    0.6730   11.0790   -6.8120 C   0  0  0  0  0  0  0  0  0  0  0  0
    1.6190   11.6810   -7.2450 O   0  0  0  0  0  0  0  0  0  0  0  0
    0.8190   12.0210   -3.3130 C   0  0  0  0  0  0  0  0  0  0  0  0
    0.0300    9.9050   -7.5260 C   0  0  0  0  0  0  0  0  0  0  0  0
    0.1890   11.0720   -2.8420 O   0  0  0  0  0  0  0  0  0  0  0  0
    1.5800   12.9100   -2.6200 O   0  0  0  0  0  0  0  0  0  0  0  0
   -1.2750   10.2830   -8.2270 C   0  0  0  0  0  0  0  0  0  0  0  0
   -0.3150    8.7350   -6.5830 C   0  0  0  0  0  0  0  0  0  0  0  0
    1.0440   13.5100   -1.4280 C   0  0  0  0  0  0  0  0  0  0  0  0
   -2.1610    9.0550   -8.0810 C   0  0  0  0  0  0  0  0  0  0  0  0
   -1.8100    8.5150   -6.7070 C   0  0  0  0  0  0  0  0  0  0  0  0
   -0.0940   14.4720   -1.6930 C   0  0  0  0  0  0  0  0  0  0  0  0
   -0.9450   14.5860   -0.4330 C   0  0  0  0  0  0  0  0  0  0  0  0
   -2.3530   14.6810   -0.7750 N   0  0  0  0  0  0  0  0  0  0  0  0
   -3.2760   14.7410    0.1110 C   0  0  0  0  0  0  0  0  0  0  0  0
   -2.9180   14.7190    1.4380 N   0  0  0  0  0  0  0  0  0  0  0  0
   -4.6980   14.8230   -0.1140 C   0  0  0  0  0  0  0  0  0  0  0  0
   -5.4550   15.1990   -1.2500 C   0  0  0  0  0  0  0  0  0  0  0  0
   -5.6630   14.5200    0.8210 C   0  0  0  0  0  0  0  0  0  0  0  0
   -6.7780   15.1350   -1.0440 N   0  0  0  0  0  0  0  0  0  0  0  0
   -6.8690   14.7170    0.2300 N   0  0  0  0  0  0  0  0  0  0  0  0
   -8.1550   14.5170    0.8680 C   0  0  0  0  0  0  0  0  0  0  0  0
   -7.9820   14.0970    2.3270 C   0  0  0  0  0  0  0  0  0  0  0  0
   -7.2050   15.0470    3.0580 O   0  0  0  0  0  0  0  0  0  0  0  0
  1  2  1  0
  2  3  1  1
  1  4  1  0
  4  5  2  0
  2  6  1  0
  4  7  1  0
  6  8  2  0
  6  9  1  0
  7 10  1  0
  7 11  1  0
  9 12  1  0
 10 13  1  0
 11 14  1  0
 13 14  1  0
 12 15  1  0
 15 16  1  0
 16 17  1  0
 17 18  2  3
 18 19  1  0
 18 20  1  0
 20 21  1  0
 20 22  2  0
 21 23  2  0
 22 24  1  0
 23 24  1  0
 24 25  1  0
 25 26  1  0
 26 27  1  0
M  END
>  <comRMSD>  (365) 
0.270734

>  <∆∆G>  (365) 
-9.025222

>  <N_constrained_atoms>  (365) 
24.0

>  <LE>  (365) 
-0.334267

>  <ref_pdb>  (365) 
x0104_0

>  <ref_mols>  (365) 
x0727_0_A_α,x0592_0_A_α

>  <%Rank>  (365) 
6.24571

>  <generation_date>  (365) 
nan

>  <method>  (365) 
nan

>  <submitter_email>  (365) 
nan

>  <original SMILES>  (365) 
C[C@H](NC(=O)C1CCCC1)C(=O)OCCCN=C(N)c1cnn(CCO)c1

>  <ref_url>  (365) 
nan

>  <submitter_name>  (365) 
nan

>  <submitter_institution>  (365) 
nan

$$$$
x1012_0_A_α-x0587_0_A_α
     RDKit          3D

 27 28  0  0  0  0  0  0  0  0999 V2000
   -0.4490   18.0360   -4.7860 N   0  0  0  0  0  0  0  0  0  0  0  0
   -1.3190   16.9960   -4.8070 C   0  0  0  0  0  0  0  0  0  0  0  0
   -2.5930   17.0360   -4.8180 N   0  0  0  0  0  0  0  0  0  0  0  0
   -0.6160   15.8050   -4.8020 N   0  0  0  0  0  0  0  0  0  0  0  0
   -3.3130   15.7360   -4.8700 C   0  0  0  0  0  0  0  0  0  0  0  0
   -1.2450   14.4980   -5.0840 C   0  0  0  0  0  0  0  0  0  0  0  0
    0.8400   15.7520   -4.6910 C   0  0  0  0  0  0  0  0  0  0  0  0
   -3.3900   15.1020   -3.4700 C   0  0  0  0  0  0  0  0  0  0  0  0
   -1.0870   13.5500   -3.9070 C   0  0  0  0  0  0  0  0  0  0  0  0
    1.2920   14.6620   -3.7350 C   0  0  0  0  0  0  0  0  0  0  0  0
   -4.5620   15.3130   -2.6720 O   0  0  0  0  0  0  0  0  0  0  0  0
    0.1580   13.8460   -3.0770 C   0  0  0  0  0  0  0  0  0  0  0  0
    0.7600   12.5670   -2.5480 C   0  0  0  0  0  0  0  0  0  0  0  0
   -4.4360   14.5050   -1.4910 C   0  0  0  0  0  0  0  0  0  0  0  0
    0.0630   11.4260   -2.7590 O   0  0  0  0  0  0  0  0  0  0  0  0
    1.8130   12.5600   -1.9550 O   0  0  0  0  0  0  0  0  0  0  0  0
   -3.2010   14.7770   -0.9650 F   0  0  0  0  0  0  0  0  0  0  0  0
   -4.3280   13.2240   -1.9520 F   0  0  0  0  0  0  0  0  0  0  0  0
   -5.5300   14.6040   -0.4200 C   0  0  0  0  0  0  0  0  0  0  0  0
   -6.8430   14.3990   -0.7280 N   0  0  0  0  0  0  0  0  0  0  0  0
   -5.0880   14.8900    0.8220 N   0  0  0  0  0  0  0  0  0  0  0  0
   -7.7270   14.4910    0.2990 C   0  0  0  0  0  0  0  0  0  0  0  0
   -6.0130   14.9670    1.7900 C   0  0  0  0  0  0  0  0  0  0  0  0
   -7.3540   14.7750    1.5950 C   0  0  0  0  0  0  0  0  0  0  0  0
   -8.2520   14.8960    2.7390 C   0  0  0  0  0  0  0  0  0  0  0  0
   -7.6640   14.7640    3.9640 N   0  0  0  0  0  0  0  0  0  0  0  0
   -9.4510   15.1100    2.6100 O   0  0  0  0  0  0  0  0  0  0  0  0
  1  2  1  0
  2  3  2  3
  2  4  1  0
  3  5  1  0
  4  6  1  0
  4  7  1  0
  5  8  1  0
  6  9  1  0
  7 10  1  0
  8 11  1  0
  9 12  1  0
 10 12  1  0
 12 13  1  0
 11 14  1  0
 13 15  1  0
 13 16  2  0
 14 17  1  0
 14 18  1  0
 14 19  1  0
 19 20  2  0
 19 21  1  0
 20 22  1  0
 21 23  2  0
 22 24  2  0
 23 24  1  0
 24 25  1  0
 25 26  1  0
 25 27  2  0
M  END
>  <comRMSD>  (366) 
0.392326

>  <∆∆G>  (366) 
-8.687264

>  <N_constrained_atoms>  (366) 
25.0

>  <LE>  (366) 
-0.321751

>  <ref_pdb>  (366) 
x0104_0

>  <ref_mols>  (366) 
x1012_0_A_α,x0587_0_A_α

>  <%Rank>  (366) 
6.262869

>  <generation_date>  (366) 
nan

>  <method>  (366) 
nan

>  <submitter_email>  (366) 
nan

>  <original SMILES>  (366) 
NC(=O)c1cnc(C(F)(F)OCCN=C(N)N2CCC(C(=O)O)CC2)nc1

>  <ref_url>  (366) 
nan

>  <submitter_name>  (366) 
nan

>  <submitter_institution>  (366) 
nan

$$$$
x0628_0_A_α-x0905_0_A_α
     RDKit          3D

 21 22  0  0  0  0  0  0  0  0999 V2000
   -0.8230    9.0020   -7.1590 C   0  0  0  0  0  0  0  0  0  0  0  0
   -0.9050   10.2460   -6.3730 C   0  0  0  0  0  0  0  0  0  0  0  0
   -2.0060   10.5980   -5.6410 N   0  0  0  0  0  0  0  0  0  0  0  0
    0.0970   11.1230   -6.3210 N   0  0  0  0  0  0  0  0  0  0  0  0
   -0.3960   12.0750   -5.5100 N   0  0  0  0  0  0  0  0  0  0  0  0
   -1.6780   11.7600   -5.0980 C   0  0  0  0  0  0  0  0  0  0  0  0
   -2.5840   12.5590   -4.2030 C   0  0  0  0  0  0  0  0  0  0  0  0
    0.4300   13.2270   -5.2030 C   0  0  0  0  0  0  0  0  0  0  0  0
    1.5710   12.9610   -4.2210 C   0  0  0  0  0  0  0  0  0  0  0  0
   -1.9790   13.2680   -2.9790 C   0  0  0  0  0  0  0  0  0  0  0  0
    1.1210   12.2450   -2.9750 C   0  0  0  0  0  0  0  0  0  0  0  0
   -2.5100   14.7000   -2.7000 C   0  0  0  0  0  0  0  0  0  0  0  0
    0.6690   11.1140   -2.8940 O   0  0  0  0  0  0  0  0  0  0  0  0
    1.2520   12.9890   -1.8680 O   0  0  0  0  0  0  0  0  0  0  0  0
   -3.4640   14.8540   -1.5270 C   0  0  0  0  0  0  0  0  0  0  0  0
   -2.9900   14.9200   -0.2090 C   0  0  0  0  0  0  0  0  0  0  0  0
   -4.8480   14.9310   -1.7210 C   0  0  0  0  0  0  0  0  0  0  0  0
   -3.8980   15.0490    0.8330 C   0  0  0  0  0  0  0  0  0  0  0  0
   -5.6540   15.0550   -0.6040 C   0  0  0  0  0  0  0  0  0  0  0  0
   -7.0060   15.1240   -0.7370 O   0  0  0  0  0  0  0  0  0  0  0  0
   -5.2340   15.1140    0.6630 N   0  0  0  0  0  0  0  0  0  0  0  0
  1  2  1  0
  2  3  1  0
  2  4  2  0
  4  5  1  0
  3  6  2  0
  5  6  1  0
  6  7  1  0
  5  8  1  0
  8  9  1  0
  7 10  1  0
  9 11  1  0
 10 12  1  0
 11 13  2  0
 11 14  1  0
 12 15  1  0
 15 16  2  0
 15 17  1  0
 16 18  1  0
 17 19  2  0
 19 20  1  0
 18 21  2  0
 19 21  1  0
M  END
>  <comRMSD>  (367) 
0.232698

>  <∆∆G>  (367) 
-7.001548

>  <N_constrained_atoms>  (367) 
19.0

>  <LE>  (367) 
-0.333407

>  <ref_pdb>  (367) 
x0104_0

>  <ref_mols>  (367) 
x0628_0_A_α,x0905_0_A_α

>  <%Rank>  (367) 
6.280027

>  <generation_date>  (367) 
nan

>  <method>  (367) 
nan

>  <submitter_email>  (367) 
nan

>  <original SMILES>  (367) 
Cc1nc(CCCc2ccnc(O)c2)n(CCC(=O)O)n1

>  <ref_url>  (367) 
nan

>  <submitter_name>  (367) 
nan

>  <submitter_institution>  (367) 
nan

$$$$
5cb5_B_0_B_γ-3ew5_B_0_B_α
     RDKit          3D

 19 19  0  0  0  0  0  0  0  0999 V2000
   -0.5590   12.4350   -3.9420 O   0  0  0  0  0  0  0  0  0  0  0  0
   -0.9180   13.8080   -4.0030 C   0  0  1  0  0  0  0  0  0  0  0  0
   -0.4760   14.6080   -2.7810 C   0  0  0  0  0  0  0  0  0  0  0  0
   -0.1780   14.5220   -5.1130 C   0  0  2  0  0  0  0  0  0  0  0  0
    1.2030   14.1170   -5.0530 O   0  0  0  0  0  0  0  0  0  0  0  0
   -0.0090   15.8890   -3.2530 O   0  0  0  0  0  0  0  0  0  0  0  0
   -0.3940   15.9540   -4.6330 C   0  0  1  0  0  0  0  0  0  0  0  0
    0.2160   17.1540   -5.3670 C   0  0  0  0  0  0  0  0  0  0  0  0
   -0.8280   17.9920   -6.1080 C   0  0  0  0  0  0  0  0  0  0  0  0
   -0.4040   19.3190   -6.2660 O   0  0  0  0  0  0  0  0  0  0  0  0
   -0.1960   19.8780   -7.7460 P   0  0  2  0  0  0  0  0  0  0  0  0
   -1.4850   20.8340   -7.9560 O   0  0  0  0  0  0  0  0  0  0  0  0
    0.0750   18.8360   -8.7790 O   0  0  0  0  0  0  0  0  0  0  0  0
    1.0160   20.9150   -7.5580 O   0  0  0  0  0  0  0  0  0  0  0  0
   -2.5140   20.8170   -6.9670 C   0  0  0  0  0  0  0  0  0  0  0  0
   -3.6870   21.7820   -7.2550 C   0  0  2  0  0  0  0  0  0  0  0  0
   -5.0730   21.1580   -7.0760 C   0  0  0  0  0  0  0  0  0  0  0  0
   -3.6500   22.2490   -8.6060 O   0  0  0  0  0  0  0  0  0  0  0  0
   -5.7140   21.6040   -5.8760 O   0  0  0  0  0  0  0  0  0  0  0  0
  2  1  1  1
  2  3  1  0
  2  4  1  0
  4  5  1  1
  3  6  1  0
  4  7  1  0
  6  7  1  0
  7  8  1  6
  8  9  1  0
  9 10  1  0
 10 11  1  0
 11 12  1  0
 11 13  2  0
 11 14  1  1
 12 15  1  0
 15 16  1  0
 16 17  1  0
 16 18  1  6
 17 19  1  0
M  END
>  <comRMSD>  (368) 
0.51228

>  <∆∆G>  (368) 
-13.002555

>  <N_constrained_atoms>  (368) 
18.0

>  <LE>  (368) 
-0.684345

>  <ref_pdb>  (368) 
x0104_0

>  <ref_mols>  (368) 


>  <%Rank>  (368) 
6.297186

>  <generation_date>  (368) 
nan

>  <method>  (368) 
nan

>  <submitter_email>  (368) 
nan

>  <original SMILES>  (368) 
O=P(O)(OCCC1OCC(O)C1O)OC[C@@H](O)CO

>  <ref_url>  (368) 
nan

>  <submitter_name>  (368) 
nan

>  <submitter_institution>  (368) 
nan

$$$$
5CB5_0_C_γ-5dus_0_A_β
     RDKit          3D

 16 16  0  0  0  0  0  0  0  0999 V2000
   -1.4160   12.6480   -3.8690 O   0  0  0  0  0  0  0  0  0  0  0  0
   -0.3520   13.5710   -3.7620 C   0  0  2  0  0  0  0  0  0  0  0  0
   -0.5810   14.6360   -2.6880 C   0  0  0  0  0  0  0  0  0  0  0  0
   -0.1260   14.3740   -5.0410 C   0  0  2  0  0  0  0  0  0  0  0  0
    1.2840   14.3190   -5.2800 O   0  0  0  0  0  0  0  0  0  0  0  0
   -0.1560   15.8750   -3.2620 O   0  0  0  0  0  0  0  0  0  0  0  0
   -0.5970   15.7640   -4.6150 C   0  0  1  0  0  0  0  0  0  0  0  0
   -0.0840   16.9700   -5.3660 C   0  0  0  0  0  0  0  0  0  0  0  0
   -1.3940   18.1170   -5.8150 P   0  0  1  0  0  0  0  0  0  0  0  0
   -0.7170   19.4170   -6.3510 O   0  0  0  0  0  0  0  0  0  0  0  0
   -2.4790   17.5360   -6.6730 O   0  0  0  0  0  0  0  0  0  0  0  0
   -1.9250   18.6960   -4.4400 O   0  0  0  0  0  0  0  0  0  0  0  0
   -0.1910   19.9440   -7.7100 P   0  0  0  0  0  0  0  0  0  0  0  0
   -1.5100   20.6150   -8.2990 O   0  0  0  0  0  0  0  0  0  0  0  0
    0.9980   20.8400   -7.6540 O   0  0  0  0  0  0  0  0  0  0  0  0
   -0.0650   18.6790   -8.6910 O   0  0  0  0  0  0  0  0  0  0  0  0
  2  1  1  6
  2  3  1  0
  2  4  1  0
  4  5  1  1
  3  6  1  0
  4  7  1  0
  6  7  1  0
  7  8  1  6
  8  9  1  0
  9 10  1  0
  9 11  2  0
  9 12  1  1
 10 13  1  0
 13 14  1  0
 13 15  2  0
 13 16  1  0
M  END
>  <comRMSD>  (369) 
0.600712

>  <∆∆G>  (369) 
-10.734775

>  <N_constrained_atoms>  (369) 
16.0

>  <LE>  (369) 
-0.670923

>  <ref_pdb>  (369) 
x0104_0

>  <ref_mols>  (369) 


>  <%Rank>  (369) 
6.314345

>  <generation_date>  (369) 
nan

>  <method>  (369) 
nan

>  <submitter_email>  (369) 
nan

>  <original SMILES>  (369) 
O=P(O)(O)OP(=O)(O)CC1OCC(O)C1O

>  <ref_url>  (369) 
nan

>  <submitter_name>  (369) 
nan

>  <submitter_institution>  (369) 
nan

$$$$
x0905_1_B_α-x0905_0_B_α
     RDKit          3D

  7  7  0  0  0  0  0  0  0  0999 V2000
   14.0220   19.6730   11.5860 O   0  0  0  0  0  0  0  0  0  0  0  0
   13.3910   20.3560   12.5740 C   0  0  0  0  0  0  0  0  0  0  0  0
   12.4940   19.6430   13.2750 N   0  0  0  0  0  0  0  0  0  0  0  0
   13.7000   21.6820   12.7850 C   0  0  0  0  0  0  0  0  0  0  0  0
   11.8620   20.3120   14.2540 C   0  0  0  0  0  0  0  0  0  0  0  0
   13.0280   22.3440   13.8050 C   0  0  0  0  0  0  0  0  0  0  0  0
   12.0890   21.6510   14.5560 C   0  0  0  0  0  0  0  0  0  0  0  0
  1  2  1  0
  2  3  2  0
  2  4  1  0
  3  5  1  0
  4  6  2  0
  5  7  2  0
  6  7  1  0
M  END
>  <comRMSD>  (370) 
0.256093

>  <∆∆G>  (370) 
-3.75308

>  <N_constrained_atoms>  (370) 
7.0

>  <LE>  (370) 
-0.536154

>  <ref_pdb>  (370) 
x0104_0

>  <ref_mols>  (370) 
x0905_1_B_α,x0905_0_B_α

>  <%Rank>  (370) 
6.331503

>  <generation_date>  (370) 
nan

>  <method>  (370) 
nan

>  <submitter_email>  (370) 
nan

>  <original SMILES>  (370) 
Oc1ccccn1

>  <ref_url>  (370) 
nan

>  <submitter_name>  (370) 
nan

>  <submitter_institution>  (370) 
nan

$$$$
x0465_0_A_α-x0438_0_A_α
     RDKit          3D

 30 32  0  0  0  0  0  0  0  0999 V2000
    2.0780   13.0290   -4.2490 C   0  0  0  0  0  0  0  0  0  0  0  0
    0.6900   12.3770   -4.1620 C   0  0  1  0  0  0  0  0  0  0  0  0
    0.5250   11.5070   -5.2920 O   0  0  0  0  0  0  0  0  0  0  0  0
    0.5490   11.6240   -2.7940 C   0  0  0  0  0  0  0  0  0  0  0  0
    0.3930   12.1150   -1.6100 N   0  0  0  0  0  0  0  0  0  0  0  0
    0.5730   10.2690   -2.8350 O   0  0  0  0  0  0  0  0  0  0  0  0
   -0.6590   10.8510   -5.5040 C   0  0  0  0  0  0  0  0  0  0  0  0
    0.2930   13.5180   -1.2900 C   0  0  0  0  0  0  0  0  0  0  0  0
   -0.6940    9.9000   -6.5460 C   0  0  0  0  0  0  0  0  0  0  0  0
   -1.8260   11.0540   -4.7670 C   0  0  0  0  0  0  0  0  0  0  0  0
    0.3820    9.6530   -7.3050 F   0  0  0  0  0  0  0  0  0  0  0  0
   -0.7380   13.5770   -0.1550 C   0  0  0  0  0  0  0  0  0  0  0  0
   -1.8480    9.1780   -6.8320 C   0  0  0  0  0  0  0  0  0  0  0  0
   -2.9870   10.3290   -5.0570 C   0  0  0  0  0  0  0  0  0  0  0  0
   -1.4540   14.8980   -0.0820 C   0  0  0  0  0  0  0  0  0  0  0  0
   -3.0000    9.3920   -6.0850 C   0  0  0  0  0  0  0  0  0  0  0  0
   -2.9730   14.9090   -0.2380 C   0  0  0  0  0  0  0  0  0  0  0  0
   -3.5730   15.3130   -1.4500 C   0  0  0  0  0  0  0  0  0  0  0  0
   -3.8060   14.5140    0.8290 C   0  0  0  0  0  0  0  0  0  0  0  0
   -5.2070   14.5220    0.6530 C   0  0  0  0  0  0  0  0  0  0  0  0
   -4.9620   15.3300   -1.6340 C   0  0  0  0  0  0  0  0  0  0  0  0
   -6.2180   14.1750    1.5230 N   0  0  0  0  0  0  0  0  0  0  0  0
   -5.7440   14.9230   -0.5590 C   0  0  0  0  0  0  0  0  0  0  0  0
   -7.1070   14.8050   -0.3950 N   0  0  0  0  0  0  0  0  0  0  0  0
   -7.3500   14.3410    0.8800 C   0  0  0  0  0  0  0  0  0  0  0  0
   -8.7130   14.0620    1.4160 C   0  0  0  0  0  0  0  0  0  0  0  0
   -9.3310   15.3130    2.5340 S   0  0  0  0  0  0  0  0  0  0  0  0
   -8.1010   15.5070    3.8130 C   0  0  0  0  0  0  0  0  0  0  0  0
  -10.5440   14.7890    3.1440 O   0  0  0  0  0  0  0  0  0  0  0  0
   -9.4290   16.5440    1.7810 O   0  0  0  0  0  0  0  0  0  0  0  0
  2  1  1  6
  2  3  1  0
  2  4  1  0
  4  5  2  3
  4  6  1  0
  3  7  1  0
  5  8  1  0
  7  9  2  0
  7 10  1  0
  9 11  1  0
  8 12  1  0
  9 13  1  0
 10 14  2  0
 12 15  1  0
 13 16  2  0
 14 16  1  0
 15 17  1  0
 17 18  2  0
 17 19  1  0
 19 20  2  0
 18 21  1  0
 20 22  1  0
 20 23  1  0
 21 23  2  0
 23 24  1  0
 22 25  2  0
 24 25  1  0
 25 26  1  0
 27 26  1  0
 27 28  1  0
 27 29  2  0
 27 30  2  0
M  END
>  <comRMSD>  (371) 
0.363508

>  <∆∆G>  (371) 
-10.821739

>  <N_constrained_atoms>  (371) 
27.0

>  <LE>  (371) 
-0.360725

>  <ref_pdb>  (371) 
x0104_0

>  <ref_mols>  (371) 
x0465_0_A_α,x0438_0_A_α

>  <%Rank>  (371) 
6.348662

>  <generation_date>  (371) 
nan

>  <method>  (371) 
nan

>  <submitter_email>  (371) 
nan

>  <original SMILES>  (371) 
C[C@@H](Oc1ccccc1F)C(O)=NCCCc1ccc2[nH]c(CS(C)(=O)=O)nc2c1

>  <ref_url>  (371) 
nan

>  <submitter_name>  (371) 
nan

>  <submitter_institution>  (371) 
nan

$$$$
x0371_0_A_β-x0104_0_A_α
     RDKit          3D

 17 19  0  0  0  0  0  0  0  0999 V2000
   -7.9910   14.4380    2.1560 C   0  0  0  0  0  0  0  0  0  0  0  0
   -7.5370   14.8330    3.3700 C   0  0  0  0  0  0  0  0  0  0  0  0
   -8.0400   14.8070    4.6580 N   0  0  0  0  0  0  0  0  0  0  0  0
   -7.0740   14.6410    1.0890 C   0  0  0  0  0  0  0  0  0  0  0  0
   -5.7670   14.6040    1.4850 N   0  0  0  0  0  0  0  0  0  0  0  0
   -7.1550   14.8730   -0.2170 N   0  0  0  0  0  0  0  0  0  0  0  0
   -4.9620   14.8220    0.4220 C   0  0  0  0  0  0  0  0  0  0  0  0
   -5.8360   14.9900   -0.6400 C   0  0  0  0  0  0  0  0  0  0  0  0
   -9.2650   14.9340    5.2320 C   0  0  0  0  0  0  0  0  0  0  0  0
   -3.5750   14.8800    0.3240 C   0  0  0  0  0  0  0  0  0  0  0  0
   -5.3000   15.2390   -1.9090 C   0  0  0  0  0  0  0  0  0  0  0  0
   -9.4250   15.1310    6.5940 C   0  0  0  0  0  0  0  0  0  0  0  0
  -10.7990   14.8770    4.4570 S   0  0  0  0  0  0  0  0  0  0  0  0
   -3.0650   15.1220   -0.9460 C   0  0  0  0  0  0  0  0  0  0  0  0
   -3.9030   15.3030   -2.0470 C   0  0  0  0  0  0  0  0  0  0  0  0
  -10.7850   15.2320    6.9990 C   0  0  0  0  0  0  0  0  0  0  0  0
  -11.6400   15.1090    5.9290 C   0  0  0  0  0  0  0  0  0  0  0  0
  1  2  2  3
  2  3  1  0
  1  4  1  0
  4  5  1  0
  4  6  2  0
  5  7  1  0
  6  8  1  0
  7  8  2  0
  3  9  1  0
  7 10  1  0
  8 11  1  0
  9 12  2  0
  9 13  1  0
 10 14  2  0
 11 15  2  0
 14 15  1  0
 12 16  1  0
 13 17  1  0
 16 17  2  0
M  END
>  <comRMSD>  (372) 
0.427522

>  <∆∆G>  (372) 
-4.726757

>  <N_constrained_atoms>  (372) 
17.0

>  <LE>  (372) 
-0.278045

>  <ref_pdb>  (372) 
x0104_0

>  <ref_mols>  (372) 
x0371_0_A_β,x0104_0_A_α

>  <%Rank>  (372) 
6.36582

>  <generation_date>  (372) 
nan

>  <method>  (372) 
nan

>  <submitter_email>  (372) 
nan

>  <original SMILES>  (372) 
C(=Cc1nc2ccccc2[nH]1)Nc1cccs1

>  <ref_url>  (372) 
nan

>  <submitter_name>  (372) 
nan

>  <submitter_institution>  (372) 
nan

$$$$
x0852_0_B_α-x0910_1_A_α
     RDKit          3D

 17 18  0  0  0  0  0  0  0  0999 V2000
   -9.6580   17.7560    7.2840 N   0  0  0  0  0  0  0  0  0  0  0  0
   -9.4210   17.2430    6.2660 C   0  0  0  0  0  0  0  0  0  0  0  0
   -9.2170   16.5620    5.0230 C   0  0  0  0  0  0  0  0  0  0  0  0
   -8.3040   15.5070    4.8970 C   0  0  0  0  0  0  0  0  0  0  0  0
   -9.9630   16.9680    3.9140 C   0  0  0  0  0  0  0  0  0  0  0  0
   -7.5690   15.1080    5.9850 O   0  0  0  0  0  0  0  0  0  0  0  0
   -8.1510   14.8620    3.6660 C   0  0  0  0  0  0  0  0  0  0  0  0
   -9.8120   16.3240    2.6830 C   0  0  0  0  0  0  0  0  0  0  0  0
  -10.8710   16.9440    1.2330 Br  0  0  0  0  0  0  0  0  0  0  0  0
   -8.9070   15.2630    2.5430 C   0  0  0  0  0  0  0  0  0  0  0  0
   -8.7180   14.5370    1.2330 C   0  0  0  0  0  0  0  0  0  0  0  0
   -7.4110   13.9180    1.2160 N   0  0  0  0  0  0  0  0  0  0  0  0
   -6.4450   14.5980    0.5730 C   0  0  0  0  0  0  0  0  0  0  0  0
   -6.5790   15.0090   -0.7260 N   0  0  0  0  0  0  0  0  0  0  0  0
   -5.2760   14.9820    1.0160 N   0  0  0  0  0  0  0  0  0  0  0  0
   -5.4840   15.6700   -1.1420 N   0  0  0  0  0  0  0  0  0  0  0  0
   -4.7240   15.6270   -0.0470 C   0  0  0  0  0  0  0  0  0  0  0  0
  1  2  3  0
  2  3  1  0
  3  4  2  0
  3  5  1  0
  4  6  1  0
  4  7  1  0
  5  8  2  0
  8  9  1  0
  7 10  2  0
  8 10  1  0
 10 11  1  0
 11 12  1  0
 12 13  1  0
 13 14  1  0
 13 15  2  0
 14 16  1  0
 15 17  1  0
 16 17  2  0
M  END
>  <comRMSD>  (373) 
0.250084

>  <∆∆G>  (373) 
-4.767218

>  <N_constrained_atoms>  (373) 
16.0

>  <LE>  (373) 
-0.280425

>  <ref_pdb>  (373) 
x0104_0

>  <ref_mols>  (373) 
x0852_0_B_α,x0910_1_A_α

>  <%Rank>  (373) 
6.382979

>  <generation_date>  (373) 
nan

>  <method>  (373) 
nan

>  <submitter_email>  (373) 
nan

>  <original SMILES>  (373) 
N#Cc1cc(Br)c(CNc2ncn[nH]2)cc1O

>  <ref_url>  (373) 
nan

>  <submitter_name>  (373) 
nan

>  <submitter_institution>  (373) 
nan

$$$$
x0662_0_A_β-x0950_0_A_α
     RDKit          3D

 15 15  0  0  0  0  0  0  0  0999 V2000
    1.5890   10.3530  -10.4300 N   0  0  0  0  0  0  0  0  0  0  0  0
    0.6340   10.2210   -9.4200 C   0  0  0  0  0  0  0  0  0  0  0  0
   -0.4450    9.3520   -9.5680 C   0  0  0  0  0  0  0  0  0  0  0  0
    0.7400   10.9610   -8.2390 C   0  0  0  0  0  0  0  0  0  0  0  0
   -0.2000   10.8600   -7.2200 C   0  0  0  0  0  0  0  0  0  0  0  0
   -1.4010    9.2330   -8.5590 C   0  0  0  0  0  0  0  0  0  0  0  0
   -0.0860   11.6410   -5.9480 C   0  0  0  0  0  0  0  0  0  0  0  0
   -1.2850    9.9850   -7.3880 C   0  0  0  0  0  0  0  0  0  0  0  0
   -1.0010   11.7680   -5.1560 O   0  0  0  0  0  0  0  0  0  0  0  0
    1.1670   12.1590   -5.8050 O   0  0  0  0  0  0  0  0  0  0  0  0
    1.5470   12.7260   -4.5280 C   0  0  2  0  0  0  0  0  0  0  0  0
    3.0430   12.4970   -4.3930 C   0  0  0  0  0  0  0  0  0  0  0  0
    0.8680   12.0970   -3.3050 C   0  0  0  0  0  0  0  0  0  0  0  0
    0.3830   10.9840   -3.2030 O   0  0  0  0  0  0  0  0  0  0  0  0
    0.8550   12.9300   -2.2410 O   0  0  0  0  0  0  0  0  0  0  0  0
  1  2  1  0
  2  3  2  0
  2  4  1  0
  4  5  2  0
  3  6  1  0
  5  7  1  0
  5  8  1  0
  6  8  2  0
  7  9  2  0
  7 10  1  0
 10 11  1  0
 11 12  1  1
 11 13  1  0
 13 14  2  0
 13 15  1  0
M  END
>  <comRMSD>  (374) 
0.351904

>  <∆∆G>  (374) 
-3.285713

>  <N_constrained_atoms>  (374) 
15.0

>  <LE>  (374) 
-0.219048

>  <ref_pdb>  (374) 
x0104_0

>  <ref_mols>  (374) 
x0662_0_A_β,x0950_0_A_α

>  <%Rank>  (374) 
6.400137

>  <generation_date>  (374) 
nan

>  <method>  (374) 
nan

>  <submitter_email>  (374) 
nan

>  <original SMILES>  (374) 
C[C@H](OC(=O)c1cccc(N)c1)C(=O)O

>  <ref_url>  (374) 
nan

>  <submitter_name>  (374) 
nan

>  <submitter_institution>  (374) 
nan

$$$$
1hjz_B_0_B_α-5CMS_0_F_α
     RDKit          3D

 20 21  0  0  0  0  0  0  0  0999 V2000
    1.0090   21.1490   -7.8280 O   0  0  0  0  0  0  0  0  0  0  0  0
   -0.1540   20.2640   -7.8700 S   0  0  0  0  0  0  0  0  0  0  0  0
   -0.0590   19.1160   -8.7720 O   0  0  0  0  0  0  0  0  0  0  0  0
   -0.5980   19.8260   -6.5520 O   0  0  0  0  0  0  0  0  0  0  0  0
   -1.5380   21.2710   -8.4800 C   0  0  1  0  0  0  0  0  0  0  0  0
   -2.0440   22.1660   -7.3620 C   0  0  0  0  0  0  0  0  0  0  0  0
   -1.3600   21.9340   -9.8910 C   0  0  1  0  0  0  0  0  0  0  0  0
   -3.4870   22.4620   -7.4450 N   0  0  0  0  0  0  0  0  0  0  0  0
   -2.6310   22.2000  -10.5500 O   0  0  0  0  0  0  0  0  0  0  0  0
   -0.4650   23.2040  -10.0710 C   0  0  1  0  0  0  0  0  0  0  0  0
    0.4780   23.2690  -11.1280 O   0  0  0  0  0  0  0  0  0  0  0  0
   -3.8970   22.6280   -8.8410 C   0  0  0  0  0  0  0  0  0  0  0  0
   -3.7980   23.6670   -6.6840 C   0  0  0  0  0  0  0  0  0  0  0  0
   -2.6000   23.5130  -11.0860 C   0  0  2  0  0  0  0  0  0  0  0  0
   -1.4770   24.2550  -10.3830 C   0  0  2  0  0  0  0  0  0  0  0  0
   -3.8650   24.1220  -10.8500 O   0  0  0  0  0  0  0  0  0  0  0  0
   -0.9400   25.2790  -11.2490 O   0  0  0  0  0  0  0  0  0  0  0  0
   -5.3400   23.1220   -9.0060 C   0  0  0  0  0  0  0  0  0  0  0  0
   -5.2480   24.0400   -6.8580 C   0  0  0  0  0  0  0  0  0  0  0  0
   -5.5970   24.2800   -8.2190 O   0  0  0  0  0  0  0  0  0  0  0  0
  1  2  2  0
  2  3  2  0
  2  4  1  0
  2  5  1  0
  5  6  1  1
  5  7  1  0
  6  8  1  0
  7  9  1  1
  7 10  1  0
 10 11  1  6
  8 12  1  0
  8 13  1  0
  9 14  1  0
 10 15  1  0
 14 15  1  0
 14 16  1  1
 15 17  1  6
 12 18  1  0
 13 19  1  0
 18 20  1  0
 19 20  1  0
M  CHG  1   4  -1
M  END
>  <comRMSD>  (375) 
0.525761

>  <∆∆G>  (375) 
-7.035583

>  <N_constrained_atoms>  (375) 
20.0

>  <LE>  (375) 
-0.351779

>  <ref_pdb>  (375) 
x0104_0

>  <ref_mols>  (375) 


>  <%Rank>  (375) 
6.417296

>  <generation_date>  (375) 
nan

>  <method>  (375) 
nan

>  <submitter_email>  (375) 
nan

>  <original SMILES>  (375) 
O=S(=O)([O-])C(CN1CCOCC1)C1OC(O)C(O)C1O

>  <ref_url>  (375) 
nan

>  <submitter_name>  (375) 
nan

>  <submitter_institution>  (375) 
nan

$$$$
x0253_0_A_α-x0969_0_A_α
     RDKit          3D

 27 29  0  0  0  0  0  0  0  0999 V2000
    0.3600   11.9980   -5.4020 N   0  0  0  0  0  0  0  0  0  0  0  0
    1.0770   11.6830   -6.5250 C   0  0  0  0  0  0  0  0  0  0  0  0
    2.1940   12.1450   -6.6470 O   0  0  0  0  0  0  0  0  0  0  0  0
    1.0370   12.7440   -4.3430 C   0  0  0  0  0  0  0  0  0  0  0  0
    0.6210   12.3000   -2.9410 C   0  0  0  0  0  0  0  0  0  0  0  0
    0.4620   10.7540   -7.5200 C   0  0  0  0  0  0  0  0  0  0  0  0
    0.4190   13.1350   -1.9750 N   0  0  0  0  0  0  0  0  0  0  0  0
    0.4710   10.9690   -2.7680 O   0  0  0  0  0  0  0  0  0  0  0  0
   -0.5140    9.8400   -7.1220 C   0  0  0  0  0  0  0  0  0  0  0  0
    0.8580   10.7880   -8.8680 C   0  0  0  0  0  0  0  0  0  0  0  0
    0.5710   14.5800   -2.1660 C   0  0  0  0  0  0  0  0  0  0  0  0
   -1.0900    8.9710   -8.0550 C   0  0  0  0  0  0  0  0  0  0  0  0
    0.2900    9.9260   -9.7980 C   0  0  0  0  0  0  0  0  0  0  0  0
   -2.1400    7.9880   -7.6310 C   0  0  0  0  0  0  0  0  0  0  0  0
   -0.5150   15.3270   -1.3480 C   0  0  0  0  0  0  0  0  0  0  0  0
   -0.6820    9.0190   -9.3960 C   0  0  0  0  0  0  0  0  0  0  0  0
   -1.9050   15.4540   -2.0210 C   0  0  0  0  0  0  0  0  0  0  0  0
   -3.1730   15.2950   -1.1870 C   0  0  0  0  0  0  0  0  0  0  0  0
   -4.4160   15.0780   -1.6830 C   0  0  0  0  0  0  0  0  0  0  0  0
   -2.9740   15.3830    0.2640 C   0  0  0  0  0  0  0  0  0  0  0  0
   -5.5240   14.9090   -0.8070 C   0  0  0  0  0  0  0  0  0  0  0  0
   -4.0220   15.2270    1.0920 C   0  0  0  0  0  0  0  0  0  0  0  0
   -6.8060   14.6770   -1.0180 N   0  0  0  0  0  0  0  0  0  0  0  0
   -5.2840   14.9840    0.5510 N   0  0  0  0  0  0  0  0  0  0  0  0
   -6.5220   14.7710    1.1400 C   0  0  0  0  0  0  0  0  0  0  0  0
   -7.4270   14.5900    0.2040 N   0  0  0  0  0  0  0  0  0  0  0  0
   -6.7390   14.7630    2.4710 N   0  0  0  0  0  0  0  0  0  0  0  0
  1  2  1  0
  2  3  2  0
  1  4  1  0
  4  5  1  0
  2  6  1  0
  5  7  2  3
  5  8  1  0
  6  9  2  0
  6 10  1  0
  7 11  1  0
  9 12  1  0
 10 13  2  0
 12 14  1  0
 11 15  1  0
 12 16  2  0
 13 16  1  0
 15 17  1  0
 17 18  1  0
 18 19  2  0
 18 20  1  0
 19 21  1  0
 20 22  2  0
 21 23  2  0
 21 24  1  0
 22 24  1  0
 24 25  1  0
 23 26  1  0
 25 26  2  0
 25 27  1  0
M  END
>  <comRMSD>  (376) 
0.295776

>  <∆∆G>  (376) 
-10.224555

>  <N_constrained_atoms>  (376) 
24.0

>  <LE>  (376) 
-0.378687

>  <ref_pdb>  (376) 
x0104_0

>  <ref_mols>  (376) 
x0253_0_A_α,x0969_0_A_α

>  <%Rank>  (376) 
6.434454

>  <generation_date>  (376) 
nan

>  <method>  (376) 
nan

>  <submitter_email>  (376) 
nan

>  <original SMILES>  (376) 
Cc1cccc(C(=O)NCC(O)=NCCCc2ccn3c(N)nnc3c2)c1

>  <ref_url>  (376) 
nan

>  <submitter_name>  (376) 
nan

>  <submitter_institution>  (376) 
nan

$$$$
5cb5_B_0_B_γ-5DUS_0_A_β
     RDKit          3D

 16 16  0  0  0  0  0  0  0  0999 V2000
   -0.5610   12.4930   -3.9260 O   0  0  0  0  0  0  0  0  0  0  0  0
   -0.8960   13.8380   -3.9260 C   0  0  1  0  0  0  0  0  0  0  0  0
   -0.2720   14.6210   -2.7710 C   0  0  0  0  0  0  0  0  0  0  0  0
   -0.3310   14.5450   -5.1100 C   0  0  2  0  0  0  0  0  0  0  0  0
    0.9960   14.1440   -5.2590 O   0  0  0  0  0  0  0  0  0  0  0  0
    0.1770   15.8300   -3.3480 O   0  0  0  0  0  0  0  0  0  0  0  0
   -0.4940   15.9010   -4.5530 C   0  0  1  0  0  0  0  0  0  0  0  0
   -0.1390   17.1320   -5.3840 C   0  0  0  0  0  0  0  0  0  0  0  0
   -1.5500   18.1290   -5.6220 P   0  0  0  0  0  0  0  0  0  0  0  0
   -0.9670   19.4170   -6.1880 O   0  0  0  0  0  0  0  0  0  0  0  0
   -2.5130   18.0230   -7.0140 O   0  0  0  0  0  0  0  0  0  0  0  0
   -2.1000   19.0540   -4.4570 O   0  0  0  0  0  0  0  0  0  0  0  0
   -0.1810   19.6900   -7.5410 P   0  0  0  0  0  0  0  0  0  0  0  0
   -1.3930   20.3950   -8.1680 O   0  0  0  0  0  0  0  0  0  0  0  0
    0.6860   21.1130   -7.7360 O   0  0  0  0  0  0  0  0  0  0  0  0
   -0.0780   18.5290   -8.6980 O   0  0  0  0  0  0  0  0  0  0  0  0
  2  1  1  1
  2  3  1  0
  2  4  1  0
  4  5  1  1
  3  6  1  0
  4  7  1  0
  6  7  1  0
  7  8  1  6
  8  9  1  0
  9 10  1  0
  9 11  1  0
  9 12  1  0
 10 13  1  0
 13 14  1  0
 13 15  1  0
 13 16  1  0
M  CHG  2  11  -1  15  -1
M  END
>  <comRMSD>  (377) 
0.524979

>  <∆∆G>  (377) 
-8.241298

>  <N_constrained_atoms>  (377) 
16.0

>  <LE>  (377) 
-0.515081

>  <ref_pdb>  (377) 
x0104_0

>  <ref_mols>  (377) 


>  <%Rank>  (377) 
6.451613

>  <generation_date>  (377) 
nan

>  <method>  (377) 
nan

>  <submitter_email>  (377) 
nan

>  <original SMILES>  (377) 
[O-][PH](O)(O)O[PH]([O-])(O)CC1OCC(O)C1O

>  <ref_url>  (377) 
nan

>  <submitter_name>  (377) 
nan

>  <submitter_institution>  (377) 
nan

$$$$
5CMS_0_E_δ-x0282_0_A_α
     RDKit          3D

 17 19  0  0  0  0  0  0  0  0999 V2000
   -2.9830   14.1740    2.5070 N   0  0  0  0  0  0  0  0  0  0  0  0
   -3.1460   14.7050    0.6880 S   0  0  0  0  0  0  0  0  0  0  0  0
   -1.7990   14.6590   -0.4670 C   0  0  1  0  0  0  0  0  0  0  0  0
   -1.4960   15.5640    0.7790 N   0  0  0  0  0  0  0  0  0  0  0  0
   -4.1900   13.3760    0.2730 C   0  0  0  0  0  0  0  0  0  0  0  0
   -4.6210   15.4540   -0.1410 C   0  0  0  0  0  0  0  0  0  0  0  0
   -1.1310   13.4980   -0.6960 C   0  0  1  0  0  0  0  0  0  0  0  0
   -2.4340   15.1110   -1.7220 N   0  0  0  0  0  0  0  0  0  0  0  0
   -0.3670   14.8070    0.9300 C   0  0  0  0  0  0  0  0  0  0  0  0
   -5.4070   13.3290    1.1190 C   0  0  0  0  0  0  0  0  0  0  0  0
   -5.9130   15.1680    0.3130 C   0  0  0  0  0  0  0  0  0  0  0  0
   -1.1770   13.4010   -2.1120 N   0  0  0  0  0  0  0  0  0  0  0  0
   -2.4850   13.9180   -2.4620 C   0  0  0  0  0  0  0  0  0  0  0  0
    0.1590   13.9730   -0.2040 N   0  0  0  0  0  0  0  0  0  0  0  0
   -6.4600   13.7700    0.2020 C   0  0  0  0  0  0  0  0  0  0  0  0
   -7.7950   13.6880    0.8630 C   0  0  0  0  0  0  0  0  0  0  0  0
   -8.6340   14.5930    0.2100 O   0  0  0  0  0  0  0  0  0  0  0  0
  1  2  1  0
  2  3  1  0
  2  4  1  0
  2  5  1  0
  2  6  1  0
  3  7  1  0
  3  8  1  6
  4  9  1  0
  5 10  1  0
  6 11  1  0
  7 12  1  6
  8 13  1  0
 12 13  1  0
  7 14  1  0
  9 14  1  0
 10 15  1  0
 11 15  1  0
 15 16  1  0
 16 17  1  0
M  END
>  <comRMSD>  (378) 
0.304086

>  <∆∆G>  (378) 
-0.46853

>  <N_constrained_atoms>  (378) 
17.0

>  <LE>  (378) 
-0.027561

>  <ref_pdb>  (378) 
x0104_0

>  <ref_mols>  (378) 
x0282_0_A_α

>  <%Rank>  (378) 
6.468771

>  <generation_date>  (378) 
nan

>  <method>  (378) 
nan

>  <submitter_email>  (378) 
nan

>  <original SMILES>  (378) 
N[SH]12(CCC(CO)CC1)NCNC1NCNC12

>  <ref_url>  (378) 
nan

>  <submitter_name>  (378) 
nan

>  <submitter_institution>  (378) 
nan

$$$$
x0471_0_A_α-x0371_0_A_β
     RDKit          3D

 16 17  0  0  0  0  0  0  0  0999 V2000
   -8.8050   14.1130    2.8440 N   0  0  0  0  0  0  0  0  0  0  0  0
   -9.1660   15.1390    3.6760 C   0  0  0  0  0  0  0  0  0  0  0  0
   -9.4370   16.2530    3.2400 O   0  0  0  0  0  0  0  0  0  0  0  0
   -8.8880   14.2870    1.4080 C   0  0  0  0  0  0  0  0  0  0  0  0
   -9.2530   14.8400    5.1720 C   0  0  0  0  0  0  0  0  0  0  0  0
   -7.5170   14.5360    0.8890 C   0  0  0  0  0  0  0  0  0  0  0  0
   -9.6260   13.3830    5.4470 C   0  0  0  0  0  0  0  0  0  0  0  0
   -8.0000   15.2740    5.9160 C   0  0  0  0  0  0  0  0  0  0  0  0
   -7.2450   14.8270   -0.4280 N   0  0  0  0  0  0  0  0  0  0  0  0
   -6.4090   14.5140    1.5960 N   0  0  0  0  0  0  0  0  0  0  0  0
   -5.3920   14.7930    0.7240 C   0  0  0  0  0  0  0  0  0  0  0  0
   -5.8880   14.9960   -0.5560 C   0  0  0  0  0  0  0  0  0  0  0  0
   -5.0750   15.2970   -1.6450 C   0  0  0  0  0  0  0  0  0  0  0  0
   -4.0150   14.8880    0.9610 C   0  0  0  0  0  0  0  0  0  0  0  0
   -3.7040   15.3860   -1.3940 C   0  0  0  0  0  0  0  0  0  0  0  0
   -3.1800   15.1840   -0.1140 C   0  0  0  0  0  0  0  0  0  0  0  0
  1  2  1  0
  2  3  2  0
  1  4  1  0
  2  5  1  0
  4  6  1  0
  5  7  1  0
  5  8  1  0
  6  9  1  0
  6 10  2  0
 10 11  1  0
  9 12  1  0
 11 12  2  0
 12 13  1  0
 11 14  1  0
 13 15  2  0
 14 16  2  0
 15 16  1  0
M  END
>  <comRMSD>  (379) 
0.379396

>  <∆∆G>  (379) 
-3.527187

>  <N_constrained_atoms>  (379) 
16.0

>  <LE>  (379) 
-0.220449

>  <ref_pdb>  (379) 
x0104_0

>  <ref_mols>  (379) 
x0471_0_A_α,x0371_0_A_β

>  <%Rank>  (379) 
6.48593

>  <generation_date>  (379) 
nan

>  <method>  (379) 
nan

>  <submitter_email>  (379) 
nan

>  <original SMILES>  (379) 
CC(C)C(=O)NCc1nc2ccccc2[nH]1

>  <ref_url>  (379) 
nan

>  <submitter_name>  (379) 
nan

>  <submitter_institution>  (379) 
nan

$$$$
x0727_0_A_α-x0371_0_A_β
     RDKit          3D

 26 28  0  0  0  0  0  0  0  0999 V2000
    0.1130   11.4500   -5.5490 N   0  0  0  0  0  0  0  0  0  0  0  0
    0.8690   12.3390   -4.6580 C   0  0  1  0  0  0  0  0  0  0  0  0
    0.4690   13.7850   -4.8980 C   0  0  0  0  0  0  0  0  0  0  0  0
    0.6940   11.1300   -6.7570 C   0  0  0  0  0  0  0  0  0  0  0  0
    1.6450   11.7440   -7.1690 O   0  0  0  0  0  0  0  0  0  0  0  0
    0.6370   11.9420   -3.1870 C   0  0  0  0  0  0  0  0  0  0  0  0
    0.0700    9.9520   -7.5000 C   0  0  0  0  0  0  0  0  0  0  0  0
    0.1490   10.8740   -2.8210 O   0  0  0  0  0  0  0  0  0  0  0  0
    1.0630   12.9370   -2.3490 O   0  0  0  0  0  0  0  0  0  0  0  0
   -1.2350   10.3270   -8.2030 C   0  0  0  0  0  0  0  0  0  0  0  0
   -0.2810    8.7960   -6.5440 C   0  0  0  0  0  0  0  0  0  0  0  0
    0.1330   13.4040   -1.3410 C   0  0  0  0  0  0  0  0  0  0  0  0
   -2.1220    9.0970   -8.0670 C   0  0  0  0  0  0  0  0  0  0  0  0
   -1.7740    8.5550   -6.6890 C   0  0  0  0  0  0  0  0  0  0  0  0
   -0.4860   14.7490   -1.7480 C   0  0  0  0  0  0  0  0  0  0  0  0
   -1.2320   15.4750   -0.6140 C   0  0  0  0  0  0  0  0  0  0  0  0
   -2.7510   15.3310   -0.6170 C   0  0  0  0  0  0  0  0  0  0  0  0
   -3.4420   15.0050    0.5660 C   0  0  0  0  0  0  0  0  0  0  0  0
   -3.4740   15.5190   -1.8100 C   0  0  0  0  0  0  0  0  0  0  0  0
   -4.8350   14.8770    0.4830 C   0  0  0  0  0  0  0  0  0  0  0  0
   -4.8770   15.3830   -1.8560 C   0  0  0  0  0  0  0  0  0  0  0  0
   -5.7740   14.5680    1.4230 N   0  0  0  0  0  0  0  0  0  0  0  0
   -5.5590   15.0550   -0.6820 C   0  0  0  0  0  0  0  0  0  0  0  0
   -7.0110   14.5670    0.8240 C   0  0  0  0  0  0  0  0  0  0  0  0
   -6.9060   14.8610   -0.4570 N   0  0  0  0  0  0  0  0  0  0  0  0
   -8.2510   14.2670    1.5760 C   0  0  0  0  0  0  0  0  0  0  0  0
  1  2  1  0
  2  3  1  1
  1  4  1  0
  4  5  2  0
  2  6  1  0
  4  7  1  0
  6  8  2  0
  6  9  1  0
  7 10  1  0
  7 11  1  0
  9 12  1  0
 10 13  1  0
 11 14  1  0
 13 14  1  0
 12 15  1  0
 15 16  1  0
 16 17  1  0
 17 18  2  0
 17 19  1  0
 18 20  1  0
 19 21  2  0
 20 22  1  0
 20 23  2  0
 21 23  1  0
 22 24  1  0
 23 25  1  0
 24 25  2  0
 24 26  1  0
M  END
>  <comRMSD>  (380) 
0.235721

>  <∆∆G>  (380) 
-8.145602

>  <N_constrained_atoms>  (380) 
23.0

>  <LE>  (380) 
-0.313292

>  <ref_pdb>  (380) 
x0104_0

>  <ref_mols>  (380) 
x0727_0_A_α,x0371_0_A_β

>  <%Rank>  (380) 
6.503089

>  <generation_date>  (380) 
nan

>  <method>  (380) 
nan

>  <submitter_email>  (380) 
nan

>  <original SMILES>  (380) 
Cc1nc2ccc(CCCOC(=O)[C@H](C)NC(=O)C3CCCC3)cc2[nH]1

>  <ref_url>  (380) 
nan

>  <submitter_name>  (380) 
nan

>  <submitter_institution>  (380) 
nan

$$$$
x0737_0_B_α-x0423_0_B_α
     RDKit          3D

 31 33  0  0  0  0  0  0  0  0999 V2000
   15.6150   15.8250   11.8040 N   0  0  0  0  0  0  0  0  0  0  0  0
   16.3230   16.9340   12.4080 C   0  0  0  0  0  0  0  0  0  0  0  0
   15.3300   17.9140   13.0260 C   0  0  0  0  0  0  0  0  0  0  0  0
   16.0660   14.5200   11.7930 C   0  0  0  0  0  0  0  0  0  0  0  0
   17.2520   14.2020   11.7990 O   0  0  0  0  0  0  0  0  0  0  0  0
   14.9230   13.5110   11.7670 C   0  0  2  0  0  0  0  0  0  0  0  0
   14.8900   18.9660   12.0090 C   0  0  0  0  0  0  0  0  0  0  0  0
   14.3960   13.3040   13.1780 C   0  0  2  0  0  0  0  0  0  0  0  0
   15.2860   12.1660   11.1610 C   0  0  0  0  0  0  0  0  0  0  0  0
   15.4890   13.2700   14.2460 C   0  0  0  0  0  0  0  0  0  0  0  0
   13.4840   12.0980   13.2990 N   0  0  0  0  0  0  0  0  0  0  0  0
   13.9980   11.4130   10.9430 C   0  0  0  0  0  0  0  0  0  0  0  0
   13.6560   19.6860   12.4130 N   0  0  0  0  0  0  0  0  0  0  0  0
   11.9860   12.5180   13.9090 S   0  0  0  0  0  0  0  0  0  0  0  0
   13.4870   10.9730   12.2930 C   0  0  0  0  0  0  0  0  0  0  0  0
   12.6120   19.1590   13.1660 C   0  0  0  0  0  0  0  0  0  0  0  0
   13.6730   21.0950   12.1930 N   0  0  0  0  0  0  0  0  0  0  0  0
   12.0350   13.9530   14.0780 O   0  0  0  0  0  0  0  0  0  0  0  0
   11.6350   11.5940   14.9610 O   0  0  0  0  0  0  0  0  0  0  0  0
   11.0600   12.1690   12.4660 C   0  0  0  0  0  0  0  0  0  0  0  0
   11.9880   19.8100   14.1320 C   0  0  0  0  0  0  0  0  0  0  0  0
   13.1250   21.9240   13.2900 C   0  0  2  0  0  0  0  0  0  0  0  0
   14.0960   22.9740   13.6120 N   0  0  0  0  0  0  0  0  0  0  0  0
   12.4190   21.1940   14.4560 C   0  0  0  0  0  0  0  0  0  0  0  0
   13.4850   24.1500   14.2220 C   0  0  0  0  0  0  0  0  0  0  0  0
   14.9000   23.3930   12.4580 C   0  0  0  0  0  0  0  0  0  0  0  0
   14.5640   24.9840   14.9500 C   0  0  2  0  0  0  0  0  0  0  0  0
   15.9840   24.3760   12.9190 C   0  0  0  0  0  0  0  0  0  0  0  0
   14.3930   26.4350   14.7950 N   0  0  0  0  0  0  0  0  0  0  0  0
   15.9630   24.5880   14.4330 C   0  0  0  0  0  0  0  0  0  0  0  0
   13.1150   26.8950   15.3250 C   0  0  0  0  0  0  0  0  0  0  0  0
  1  2  1  0
  2  3  1  0
  1  4  1  0
  4  5  2  0
  6  4  1  1
  3  7  1  0
  6  8  1  0
  6  9  1  0
  8 10  1  1
  8 11  1  0
  9 12  1  0
  7 13  1  0
 11 14  1  0
 11 15  1  0
 12 15  1  0
 13 16  1  0
 13 17  1  0
 14 18  2  0
 14 19  2  0
 14 20  1  0
 16 21  2  0
 17 22  1  0
 22 23  1  1
 21 24  1  0
 22 24  1  0
 23 25  1  0
 23 26  1  0
 25 27  1  0
 26 28  1  0
 27 29  1  6
 27 30  1  0
 28 30  1  0
 29 31  1  0
M  END
>  <comRMSD>  (381) 
0.431127

>  <∆∆G>  (381) 
-6.997345

>  <N_constrained_atoms>  (381) 
29.0

>  <LE>  (381) 
-0.225721

>  <ref_pdb>  (381) 
x0104_0

>  <ref_mols>  (381) 
x0737_0_B_α,x0423_0_B_α

>  <%Rank>  (381) 
6.520247

>  <generation_date>  (381) 
nan

>  <method>  (381) 
nan

>  <submitter_email>  (381) 
nan

>  <original SMILES>  (381) 
CNC1CCCN(C2CC=CN(CCCNC(=O)C3CCCN(S(C)(=O)=O)C3C)N2)C1

>  <ref_url>  (381) 
nan

>  <submitter_name>  (381) 
nan

>  <submitter_institution>  (381) 
nan

$$$$
x0628_0_A_α-x0104_0_A_β
     RDKit          3D

 23 24  0  0  0  0  0  0  0  0999 V2000
   -0.7160    8.9700   -7.2270 C   0  0  0  0  0  0  0  0  0  0  0  0
   -0.8120   10.2040   -6.4270 C   0  0  0  0  0  0  0  0  0  0  0  0
   -1.9110   10.5110   -5.6720 N   0  0  0  0  0  0  0  0  0  0  0  0
    0.1670   11.1110   -6.3830 N   0  0  0  0  0  0  0  0  0  0  0  0
   -0.3460   12.0340   -5.5500 N   0  0  0  0  0  0  0  0  0  0  0  0
   -1.6020   11.6700   -5.1250 C   0  0  0  0  0  0  0  0  0  0  0  0
   -2.4790   12.4570   -4.2040 C   0  0  0  0  0  0  0  0  0  0  0  0
    0.4350   13.2150   -5.2360 C   0  0  0  0  0  0  0  0  0  0  0  0
    1.5880   12.9250   -4.2860 C   0  0  0  0  0  0  0  0  0  0  0  0
   -1.8950   12.6310   -2.8020 C   0  0  0  0  0  0  0  0  0  0  0  0
    1.1000   12.2360   -3.0420 C   0  0  0  0  0  0  0  0  0  0  0  0
   -2.7890   13.4580   -1.8640 C   0  0  0  0  0  0  0  0  0  0  0  0
    0.5970   11.1300   -2.9570 O   0  0  0  0  0  0  0  0  0  0  0  0
    1.2740   12.9800   -1.9350 O   0  0  0  0  0  0  0  0  0  0  0  0
   -3.2670   14.7980   -2.4420 C   0  0  0  0  0  0  0  0  0  0  0  0
   -4.6910   14.8380   -2.4340 O   0  0  0  0  0  0  0  0  0  0  0  0
   -5.2060   14.8150   -1.1570 C   0  0  0  0  0  0  0  0  0  0  0  0
   -4.3740   14.8860   -0.0990 N   0  0  0  0  0  0  0  0  0  0  0  0
   -6.5820   14.7150   -1.0540 C   0  0  0  0  0  0  0  0  0  0  0  0
   -4.9600   14.8570    1.1170 C   0  0  0  0  0  0  0  0  0  0  0  0
   -7.1520   14.6820    0.2150 C   0  0  0  0  0  0  0  0  0  0  0  0
   -6.3320   14.7540    1.3390 C   0  0  0  0  0  0  0  0  0  0  0  0
   -6.8780   14.7290    2.6230 N   0  0  0  0  0  0  0  0  0  0  0  0
  1  2  1  0
  2  3  1  0
  2  4  2  0
  4  5  1  0
  3  6  2  0
  5  6  1  0
  6  7  1  0
  5  8  1  0
  8  9  1  0
  7 10  1  0
  9 11  1  0
 10 12  1  0
 11 13  2  0
 11 14  1  0
 12 15  1  0
 15 16  1  0
 16 17  1  0
 17 18  2  0
 17 19  1  0
 18 20  1  0
 19 21  2  0
 20 22  2  0
 21 22  1  0
 22 23  1  0
M  END
>  <comRMSD>  (382) 
0.20762

>  <∆∆G>  (382) 
-3.425673

>  <N_constrained_atoms>  (382) 
21.0

>  <LE>  (382) 
-0.148942

>  <ref_pdb>  (382) 
x0104_0

>  <ref_mols>  (382) 
x0628_0_A_α,x0104_0_A_β

>  <%Rank>  (382) 
6.537406

>  <generation_date>  (382) 
nan

>  <method>  (382) 
nan

>  <submitter_email>  (382) 
nan

>  <original SMILES>  (382) 
Cc1nc(CCCCOc2ccc(N)cn2)n(CCC(=O)O)n1

>  <ref_url>  (382) 
nan

>  <submitter_name>  (382) 
nan

>  <submitter_institution>  (382) 
nan

$$$$
x0371_0_A_β-x0371_0_A_α
     RDKit          3D

 17 19  0  0  0  0  0  0  0  0999 V2000
   -8.2560   14.3500    2.2520 C   0  0  0  0  0  0  0  0  0  0  0  0
   -8.7780   15.4980    3.1550 C   0  0  0  0  0  0  0  0  0  0  0  0
   -9.3830   16.4530    2.6720 O   0  0  0  0  0  0  0  0  0  0  0  0
   -7.1230   14.6200    1.2750 C   0  0  0  0  0  0  0  0  0  0  0  0
   -5.8100   14.6140    1.6430 N   0  0  0  0  0  0  0  0  0  0  0  0
   -7.2060   14.8870   -0.0330 N   0  0  0  0  0  0  0  0  0  0  0  0
   -8.5790   15.4410    4.6160 C   0  0  0  0  0  0  0  0  0  0  0  0
   -5.0120   14.8740    0.5780 C   0  0  0  0  0  0  0  0  0  0  0  0
   -5.8970   15.0450   -0.4730 C   0  0  0  0  0  0  0  0  0  0  0  0
   -8.0310   14.3400    5.2180 O   0  0  0  0  0  0  0  0  0  0  0  0
   -8.8720   16.3800    5.6020 C   0  0  0  0  0  0  0  0  0  0  0  0
   -3.6300   14.9610    0.4650 C   0  0  0  0  0  0  0  0  0  0  0  0
   -5.3760   15.3330   -1.7450 C   0  0  0  0  0  0  0  0  0  0  0  0
   -7.9750   14.5780    6.5590 C   0  0  0  0  0  0  0  0  0  0  0  0
   -8.4820   15.8190    6.8460 C   0  0  0  0  0  0  0  0  0  0  0  0
   -3.1340   15.2380   -0.8050 C   0  0  0  0  0  0  0  0  0  0  0  0
   -3.9830   15.4260   -1.8970 C   0  0  0  0  0  0  0  0  0  0  0  0
  1  2  1  0
  2  3  2  0
  1  4  1  0
  4  5  1  0
  4  6  2  0
  2  7  1  0
  5  8  1  0
  6  9  1  0
  8  9  2  0
  7 10  1  0
  7 11  2  0
  8 12  1  0
  9 13  1  0
 10 14  1  0
 11 15  1  0
 14 15  2  0
 12 16  2  0
 13 17  2  0
 16 17  1  0
M  END
>  <comRMSD>  (383) 
0.441099

>  <∆∆G>  (383) 
-5.035178

>  <N_constrained_atoms>  (383) 
17.0

>  <LE>  (383) 
-0.296187

>  <ref_pdb>  (383) 
x0104_0

>  <ref_mols>  (383) 
x0371_0_A_β,x0371_0_A_α

>  <%Rank>  (383) 
6.554564

>  <generation_date>  (383) 
nan

>  <method>  (383) 
nan

>  <submitter_email>  (383) 
nan

>  <original SMILES>  (383) 
O=C(Cc1nc2ccccc2[nH]1)c1ccco1

>  <ref_url>  (383) 
nan

>  <submitter_name>  (383) 
nan

>  <submitter_institution>  (383) 
nan

$$$$
x0933_0_A_α-x0685_1_A_α
     RDKit          3D

 22 23  0  0  0  0  0  0  0  0999 V2000
   -6.0900   14.7360    1.6830 N   0  0  0  0  0  0  0  0  0  0  0  0
   -5.1240   15.1830    0.7410 C   0  0  1  0  0  0  0  0  0  0  0  0
   -3.8840   15.1490    1.4310 N   0  0  0  0  0  0  0  0  0  0  0  0
   -5.1860   14.2070   -0.2580 N   0  0  0  0  0  0  0  0  0  0  0  0
   -4.3900   14.7200   -1.3420 C   0  0  0  0  0  0  0  0  0  0  0  0
   -2.7490   14.6400    0.6400 C   0  0  0  0  0  0  0  0  0  0  0  0
   -2.9290   14.6480   -0.9070 C   0  0  1  0  0  0  0  0  0  0  0  0
   -2.1910   13.5050   -1.6110 C   0  0  0  0  0  0  0  0  0  0  0  0
   -0.8630   13.0810   -1.0000 C   0  0  0  0  0  0  0  0  0  0  0  0
    0.2020   13.3800   -1.8800 O   0  0  0  0  0  0  0  0  0  0  0  0
    0.7450   12.2380   -2.8670 S   0  0  0  0  0  0  0  0  0  0  0  0
    0.1150   12.5030   -4.5250 C   0  0  0  0  0  0  0  0  0  0  0  0
    2.3350   12.3290   -3.0170 O   0  0  0  0  0  0  0  0  0  0  0  0
    0.3000   10.7510   -2.3960 O   0  0  0  0  0  0  0  0  0  0  0  0
   -1.3200   12.0120   -4.7270 C   0  0  0  0  0  0  0  0  0  0  0  0
   -1.4370   10.5570   -4.9170 N   0  0  0  0  0  0  0  0  0  0  0  0
   -1.3900   10.0280   -6.2940 C   0  0  0  0  0  0  0  0  0  0  0  0
   -0.1060    9.2750   -6.6160 C   0  0  0  0  0  0  0  0  0  0  0  0
   -1.5680   11.1510   -7.3410 C   0  0  0  0  0  0  0  0  0  0  0  0
   -0.1550    8.5400   -7.9440 C   0  0  0  0  0  0  0  0  0  0  0  0
   -1.1320   10.7530   -8.7580 C   0  0  0  0  0  0  0  0  0  0  0  0
   -1.0540    9.2390   -8.9710 C   0  0  0  0  0  0  0  0  0  0  0  0
  2  1  1  1
  2  3  1  0
  2  4  1  0
  4  5  1  0
  3  6  1  0
  5  7  1  0
  6  7  1  0
  7  8  1  1
  8  9  1  0
  9 10  1  0
 11 10  1  0
 11 12  1  0
 11 13  1  0
 11 14  1  0
 12 15  1  0
 15 16  1  0
 16 17  1  0
 17 18  1  0
 17 19  1  0
 18 20  1  0
 19 21  1  0
 20 22  1  0
 21 22  1  0
M  END
>  <comRMSD>  (384) 
0.235774

>  <∆∆G>  (384) 
-5.73761

>  <N_constrained_atoms>  (384) 
20.0

>  <LE>  (384) 
-0.2608

>  <ref_pdb>  (384) 
x0104_0

>  <ref_mols>  (384) 
x0933_0_A_α,x0685_1_A_α

>  <%Rank>  (384) 
6.571723

>  <generation_date>  (384) 
nan

>  <method>  (384) 
nan

>  <submitter_email>  (384) 
nan

>  <original SMILES>  (384) 
NC1NCC(CCOS(O)(O)CCNC2CCCCC2)CN1

>  <ref_url>  (384) 
nan

>  <submitter_name>  (384) 
nan

>  <submitter_institution>  (384) 
nan

$$$$
x0592_0_A_α-x0371_0_A_α
     RDKit          3D

 17 18  0  0  0  0  0  0  0  0999 V2000
   -2.7480   14.9020    1.0710 N   0  0  0  0  0  0  0  0  0  0  0  0
   -3.2660   14.9030   -0.1910 C   0  0  0  0  0  0  0  0  0  0  0  0
   -2.5260   14.8920   -1.1660 O   0  0  0  0  0  0  0  0  0  0  0  0
   -4.7080   14.9060   -0.2820 C   0  0  0  0  0  0  0  0  0  0  0  0
   -5.5850   15.1690   -1.3590 C   0  0  0  0  0  0  0  0  0  0  0  0
   -5.5580   14.6240    0.7620 C   0  0  0  0  0  0  0  0  0  0  0  0
   -6.8780   15.0610   -1.0170 N   0  0  0  0  0  0  0  0  0  0  0  0
   -6.8250   14.7280    0.2880 N   0  0  0  0  0  0  0  0  0  0  0  0
   -8.0370   14.5180    1.0630 C   0  0  0  0  0  0  0  0  0  0  0  0
   -7.7470   14.4360    2.5620 C   0  0  0  0  0  0  0  0  0  0  0  0
   -8.7050   15.3030    3.3540 C   0  0  0  0  0  0  0  0  0  0  0  0
   -9.3350   16.2020    2.7830 O   0  0  0  0  0  0  0  0  0  0  0  0
   -8.9240   14.9720    4.8510 C   0  0  1  0  0  0  0  0  0  0  0  0
   -7.8040   14.3840    5.5110 O   0  0  0  0  0  0  0  0  0  0  0  0
   -9.2330   16.1710    5.6890 C   0  0  0  0  0  0  0  0  0  0  0  0
   -7.8880   14.7540    6.8930 C   0  0  0  0  0  0  0  0  0  0  0  0
   -8.6460   16.0250    6.8790 C   0  0  0  0  0  0  0  0  0  0  0  0
  1  2  1  0
  2  3  2  0
  2  4  1  0
  4  5  1  0
  4  6  2  0
  5  7  2  0
  6  8  1  0
  7  8  1  0
  8  9  1  0
  9 10  1  0
 10 11  1  0
 11 12  2  0
 13 11  1  6
 13 14  1  0
 13 15  1  0
 14 16  1  0
 15 17  2  0
 16 17  1  0
M  END
>  <comRMSD>  (385) 
0.436773

>  <∆∆G>  (385) 
-4.834904

>  <N_constrained_atoms>  (385) 
17.0

>  <LE>  (385) 
-0.284406

>  <ref_pdb>  (385) 
x0104_0

>  <ref_mols>  (385) 
x0592_0_A_α,x0371_0_A_α

>  <%Rank>  (385) 
6.588881

>  <generation_date>  (385) 
nan

>  <method>  (385) 
nan

>  <submitter_email>  (385) 
nan

>  <original SMILES>  (385) 
NC(=O)c1cnn(CCC(=O)C2C=CCO2)c1

>  <ref_url>  (385) 
nan

>  <submitter_name>  (385) 
nan

>  <submitter_institution>  (385) 
nan

$$$$
x0805_0_A_β-x0591_0_A_α
     RDKit          3D

 23 24  0  0  0  0  0  0  0  0999 V2000
    0.2530   12.1140   -2.4890 C   0  0  0  0  0  0  0  0  0  0  0  0
    0.1240   10.9100   -3.0880 O   0  0  0  0  0  0  0  0  0  0  0  0
    0.1450   12.2560   -1.2820 O   0  0  0  0  0  0  0  0  0  0  0  0
    0.5920   13.2910   -3.3680 C   0  0  2  0  0  0  0  0  0  0  0  0
   -0.3410   14.4850   -3.4820 C   0  0  2  0  0  0  0  0  0  0  0  0
    1.2450   13.0700   -4.6820 C   0  0  0  0  0  0  0  0  0  0  0  0
   -0.9950   14.7630   -4.7630 N   0  0  0  0  0  0  0  0  0  0  0  0
    2.2170   14.0950   -4.7150 O   0  0  0  0  0  0  0  0  0  0  0  0
    0.6240   15.6030   -3.3060 C   0  0  0  0  0  0  0  0  0  0  0  0
   -2.5350   14.2760   -5.1550 S   0  0  0  0  0  0  0  0  0  0  0  0
    1.8370   15.4190   -4.2310 C   0  0  0  0  0  0  0  0  0  0  0  0
   -2.4180   12.8670   -5.4190 O   0  0  0  0  0  0  0  0  0  0  0  0
   -3.0640   15.1930   -6.1410 O   0  0  0  0  0  0  0  0  0  0  0  0
   -3.5320   14.4490   -3.6830 C   0  0  0  0  0  0  0  0  0  0  0  0
   -3.0320   14.2430   -2.3860 C   0  0  0  0  0  0  0  0  0  0  0  0
   -4.8590   14.7920   -3.8700 C   0  0  0  0  0  0  0  0  0  0  0  0
   -3.8950   14.3840   -1.2840 C   0  0  0  0  0  0  0  0  0  0  0  0
   -5.7120   14.9330   -2.7800 C   0  0  0  0  0  0  0  0  0  0  0  0
   -5.2400   14.7260   -1.4860 C   0  0  0  0  0  0  0  0  0  0  0  0
   -6.2240   14.8810   -0.3810 C   0  0  0  0  0  0  0  0  0  0  0  0
   -5.7740   14.6680    0.8980 N   0  0  0  0  0  0  0  0  0  0  0  0
   -7.3860   15.1660   -0.6470 O   0  0  0  0  0  0  0  0  0  0  0  0
   -6.7290   14.5030    1.9700 C   0  0  0  0  0  0  0  0  0  0  0  0
  1  2  1  0
  1  3  2  0
  4  1  1  6
  4  5  1  0
  4  6  1  0
  5  7  1  6
  6  8  1  0
  5  9  1  0
 10  7  1  0
  8 11  1  0
  9 11  1  0
 10 12  2  0
 10 13  2  0
 10 14  1  0
 14 15  2  0
 14 16  1  0
 15 17  1  0
 16 18  2  0
 17 19  2  0
 18 19  1  0
 19 20  1  0
 20 21  1  0
 20 22  2  0
 21 23  1  0
M  END
>  <comRMSD>  (386) 
0.50582

>  <∆∆G>  (386) 
-4.499601

>  <N_constrained_atoms>  (386) 
23.0

>  <LE>  (386) 
-0.195635

>  <ref_pdb>  (386) 
x0104_0

>  <ref_mols>  (386) 
x0805_0_A_β,x0591_0_A_α

>  <%Rank>  (386) 
6.60604

>  <generation_date>  (386) 
nan

>  <method>  (386) 
nan

>  <submitter_email>  (386) 
nan

>  <original SMILES>  (386) 
CNC(=O)c1ccc(S(=O)(=O)NC2CCOCC2C(=O)O)cc1

>  <ref_url>  (386) 
nan

>  <submitter_name>  (386) 
nan

>  <submitter_institution>  (386) 
nan

$$$$
x0969_0_A_α-x0371_0_A_α
     RDKit          3D

 17 19  0  0  0  0  0  0  0  0999 V2000
   -7.1120   14.7820    2.7120 N   0  0  0  0  0  0  0  0  0  0  0  0
   -8.2100   15.3610    3.3760 C   0  0  0  0  0  0  0  0  0  0  0  0
   -9.1120   15.8580    2.6860 O   0  0  0  0  0  0  0  0  0  0  0  0
   -6.7540   14.7880    1.3600 C   0  0  0  0  0  0  0  0  0  0  0  0
   -7.6570   14.6670    0.4050 N   0  0  0  0  0  0  0  0  0  0  0  0
   -5.4930   14.9250    0.7520 N   0  0  0  0  0  0  0  0  0  0  0  0
   -8.3200   15.4050    4.8360 C   0  0  0  0  0  0  0  0  0  0  0  0
   -7.0400   14.7230   -0.8190 N   0  0  0  0  0  0  0  0  0  0  0  0
   -5.7540   14.8780   -0.6200 C   0  0  0  0  0  0  0  0  0  0  0  0
   -4.1890   15.0840    1.2460 C   0  0  0  0  0  0  0  0  0  0  0  0
   -7.8940   14.3590    5.6040 O   0  0  0  0  0  0  0  0  0  0  0  0
   -8.8220   16.3910    5.6740 C   0  0  0  0  0  0  0  0  0  0  0  0
   -4.6640   14.9970   -1.5250 C   0  0  0  0  0  0  0  0  0  0  0  0
   -3.1610   15.1910    0.3890 C   0  0  0  0  0  0  0  0  0  0  0  0
   -8.1100   14.6720    6.9030 C   0  0  0  0  0  0  0  0  0  0  0  0
   -8.6840   15.9120    7.0050 C   0  0  0  0  0  0  0  0  0  0  0  0
   -3.4180   15.1450   -1.0450 C   0  0  0  0  0  0  0  0  0  0  0  0
  1  2  1  0
  2  3  2  0
  1  4  1  0
  4  5  2  0
  4  6  1  0
  2  7  1  0
  5  8  1  0
  6  9  1  0
  8  9  2  0
  6 10  1  0
  7 11  1  0
  7 12  2  0
  9 13  1  0
 10 14  2  0
 11 15  1  0
 12 16  1  0
 15 16  2  0
 13 17  2  0
 14 17  1  0
M  END
>  <comRMSD>  (387) 
0.469168

>  <∆∆G>  (387) 
-5.924228

>  <N_constrained_atoms>  (387) 
17.0

>  <LE>  (387) 
-0.348484

>  <ref_pdb>  (387) 
x0104_0

>  <ref_mols>  (387) 
x0969_0_A_α,x0371_0_A_α

>  <%Rank>  (387) 
6.623198

>  <generation_date>  (387) 
nan

>  <method>  (387) 
nan

>  <submitter_email>  (387) 
nan

>  <original SMILES>  (387) 
O=C(Nc1nnc2ccccn12)c1ccco1

>  <ref_url>  (387) 
nan

>  <submitter_name>  (387) 
nan

>  <submitter_institution>  (387) 
nan

$$$$
x0128_0_A_α-x0962_1_A_α
     RDKit          3D

 17 18  0  0  0  0  0  0  0  0999 V2000
   -6.6910   14.6360    2.4590 N   0  0  0  0  0  0  0  0  0  0  0  0
   -7.8430   15.1970    3.0160 C   0  0  0  0  0  0  0  0  0  0  0  0
   -8.8500   15.5030    2.3870 O   0  0  0  0  0  0  0  0  0  0  0  0
   -6.1820   14.7840    1.1480 C   0  0  0  0  0  0  0  0  0  0  0  0
   -7.6710   15.3680    4.3880 N   0  0  0  0  0  0  0  0  0  0  0  0
   -7.1120   14.8040    0.1030 C   0  0  0  0  0  0  0  0  0  0  0  0
   -4.8150   14.9150    0.8350 C   0  0  0  0  0  0  0  0  0  0  0  0
   -6.6950   14.9560   -1.2170 C   0  0  0  0  0  0  0  0  0  0  0  0
   -4.3960   15.0630   -0.4980 C   0  0  0  0  0  0  0  0  0  0  0  0
   -8.4790   16.0940    5.3000 C   0  0  0  0  0  0  0  0  0  0  0  0
   -5.3430   15.0860   -1.5130 C   0  0  0  0  0  0  0  0  0  0  0  0
   -9.1480   17.2400    4.8650 C   0  0  0  0  0  0  0  0  0  0  0  0
   -8.6580   15.7390    6.6330 C   0  0  0  0  0  0  0  0  0  0  0  0
   -3.0520   15.1860   -0.8430 N   0  0  0  0  0  0  0  0  0  0  0  0
   -9.9440   18.0150    5.6400 N   0  0  0  0  0  0  0  0  0  0  0  0
   -9.4710   16.5180    7.4620 C   0  0  0  0  0  0  0  0  0  0  0  0
  -10.0850   17.6360    6.9210 C   0  0  0  0  0  0  0  0  0  0  0  0
  1  2  1  0
  2  3  2  0
  1  4  1  0
  2  5  1  0
  4  6  2  0
  4  7  1  0
  6  8  1  0
  7  9  2  0
  5 10  1  0
  8 11  2  0
  9 11  1  0
 10 12  2  0
 10 13  1  0
  9 14  1  0
 12 15  1  0
 13 16  2  0
 15 17  2  0
 16 17  1  0
M  END
>  <comRMSD>  (388) 
0.463173

>  <∆∆G>  (388) 
-5.698799

>  <N_constrained_atoms>  (388) 
17.0

>  <LE>  (388) 
-0.335223

>  <ref_pdb>  (388) 
x0104_0

>  <ref_mols>  (388) 
x0128_0_A_α,x0962_1_A_α

>  <%Rank>  (388) 
6.640357

>  <generation_date>  (388) 
nan

>  <method>  (388) 
nan

>  <submitter_email>  (388) 
nan

>  <original SMILES>  (388) 
Nc1cccc(NC(=O)Nc2cccnc2)c1

>  <ref_url>  (388) 
nan

>  <submitter_name>  (388) 
nan

>  <submitter_institution>  (388) 
nan

$$$$
x0091_0_B_α-x0259_0_A_α
     RDKit          3D

 34 37  0  0  0  0  0  0  0  0999 V2000
   12.8370   21.1770   13.6380 N   0  0  0  0  0  0  0  0  0  0  0  0
   12.2210   22.0360   14.6390 C   0  0  0  0  0  0  0  0  0  0  0  0
   12.3310   19.7940   13.5390 C   0  0  0  0  0  0  0  0  0  0  0  0
   13.7500   21.6030   12.6750 C   0  0  0  0  0  0  0  0  0  0  0  0
   14.1010   20.8600   11.7710 O   0  0  0  0  0  0  0  0  0  0  0  0
   14.2280   22.9080   12.7950 N   0  0  0  0  0  0  0  0  0  0  0  0
   13.2100   18.8000   14.2490 C   0  0  0  0  0  0  0  0  0  0  0  0
   12.6910   17.7990   14.9850 N   0  0  0  0  0  0  0  0  0  0  0  0
   14.6280   18.7420   14.2690 C   0  0  0  0  0  0  0  0  0  0  0  0
   15.3230   23.4060   11.9790 C   0  0  2  0  0  0  0  0  0  0  0  0
   13.7660   17.0870   15.4850 O   0  0  0  0  0  0  0  0  0  0  0  0
   14.9210   17.6560   15.0530 C   0  0  0  0  0  0  0  0  0  0  0  0
   16.7200   22.9650   12.3260 C   0  0  0  0  0  0  0  0  0  0  0  0
   16.3350   24.3950   12.5470 C   0  0  1  0  0  0  0  0  0  0  0  0
   16.1750   17.0160   15.4990 C   0  0  0  0  0  0  0  0  0  0  0  0
   17.1080   25.4600   11.7750 C   0  0  0  0  0  0  0  0  0  0  0  0
   17.3390   25.3270   10.2460 C   0  0  0  0  0  0  0  0  0  0  0  0
   18.0540   26.5700    9.6360 C   0  0  0  0  0  0  0  0  0  0  0  0
   17.9000   26.9500    8.1320 C   0  0  0  0  0  0  0  0  0  0  0  0
   18.6030   28.2930    7.7470 C   0  0  1  0  0  0  0  0  0  0  0  0
   19.9630   27.9950    7.1730 N   0  0  0  0  0  0  0  0  0  0  0  0
   17.7990   29.4380    7.0130 C   0  0  2  0  0  0  0  0  0  0  0  0
   21.0710   28.5420    7.9540 C   0  0  0  0  0  0  0  0  0  0  0  0
   17.8720   30.7640    7.7980 C   0  0  0  0  0  0  0  0  0  0  0  0
   16.2790   29.2600    6.9120 C   0  0  0  0  0  0  0  0  0  0  0  0
   20.2590   27.8410    5.7870 C   0  0  0  0  0  0  0  0  0  0  0  0
   15.7390   30.5880    6.8690 O   0  0  0  0  0  0  0  0  0  0  0  0
   16.4710   31.3360    7.8240 C   0  0  0  0  0  0  0  0  0  0  0  0
   19.2440   27.5380    4.9440 N   0  0  0  0  0  0  0  0  0  0  0  0
   21.5600   27.9840    5.2760 C   0  0  0  0  0  0  0  0  0  0  0  0
   22.9660   28.3700    6.1890 Cl  0  0  0  0  0  0  0  0  0  0  0  0
   19.5190   27.3770    3.6370 C   0  0  0  0  0  0  0  0  0  0  0  0
   21.7200   27.7950    3.9150 C   0  0  0  0  0  0  0  0  0  0  0  0
   20.7220   27.4880    3.0650 N   0  0  0  0  0  0  0  0  0  0  0  0
  1  2  1  0
  1  3  1  0
  1  4  1  0
  4  5  2  0
  4  6  1  0
  3  7  1  0
  7  8  2  0
  7  9  1  0
 10  6  1  1
  8 11  1  0
  9 12  2  0
 11 12  1  0
 10 13  1  0
 10 14  1  0
 13 14  1  0
 12 15  1  0
 14 16  1  6
 16 17  1  0
 17 18  1  0
 18 19  1  0
 20 19  1  6
 20 21  1  0
 20 22  1  0
 21 23  1  0
 22 24  1  1
 22 25  1  0
 21 26  1  0
 25 27  1  0
 24 28  1  0
 27 28  1  0
 26 29  2  0
 26 30  1  0
 30 31  1  0
 29 32  1  0
 30 33  2  0
 32 34  2  0
 33 34  1  0
M  END
>  <comRMSD>  (389) 
0.279204

>  <∆∆G>  (389) 
-7.205964

>  <N_constrained_atoms>  (389) 
30.0

>  <LE>  (389) 
-0.21194

>  <ref_pdb>  (389) 
x0104_0

>  <ref_mols>  (389) 
x0091_0_B_α,x0259_0_A_α

>  <%Rank>  (389) 
6.657515

>  <generation_date>  (389) 
nan

>  <method>  (389) 
nan

>  <submitter_email>  (389) 
nan

>  <original SMILES>  (389) 
Cc1cc(CN(C)C(=O)NC2CC2CCCCC(C2CCOC2)N(C)c2ncncc2Cl)no1

>  <ref_url>  (389) 
nan

>  <submitter_name>  (389) 
nan

>  <submitter_institution>  (389) 
nan

$$$$
x0371_0_A_β-x0727_0_A_α
     RDKit          3D

 26 28  0  0  0  0  0  0  0  0999 V2000
   -8.2460   14.2680    1.5790 C   0  0  0  0  0  0  0  0  0  0  0  0
   -7.0060   14.5670    0.8320 C   0  0  0  0  0  0  0  0  0  0  0  0
   -5.7700   14.5750    1.4330 N   0  0  0  0  0  0  0  0  0  0  0  0
   -6.8970   14.8570   -0.4510 N   0  0  0  0  0  0  0  0  0  0  0  0
   -4.8290   14.8830    0.4940 C   0  0  0  0  0  0  0  0  0  0  0  0
   -5.5550   15.0540   -0.6730 C   0  0  0  0  0  0  0  0  0  0  0  0
   -3.4390   15.0180    0.5780 C   0  0  0  0  0  0  0  0  0  0  0  0
   -4.8690   15.3810   -1.8470 C   0  0  0  0  0  0  0  0  0  0  0  0
   -2.7520   15.3420   -0.6080 C   0  0  0  0  0  0  0  0  0  0  0  0
   -3.4710   15.5220   -1.8040 C   0  0  0  0  0  0  0  0  0  0  0  0
   -1.2340   15.4890   -0.5870 C   0  0  0  0  0  0  0  0  0  0  0  0
   -0.5100   14.7580   -1.7270 C   0  0  0  0  0  0  0  0  0  0  0  0
    0.1160   13.4180   -1.3140 C   0  0  0  0  0  0  0  0  0  0  0  0
    1.0610   12.9590   -2.3110 O   0  0  0  0  0  0  0  0  0  0  0  0
    0.6480   11.9510   -3.1440 C   0  0  0  0  0  0  0  0  0  0  0  0
    0.8530   12.3080   -4.6360 C   0  0  1  0  0  0  0  0  0  0  0  0
    0.1820   10.8830   -2.7540 O   0  0  0  0  0  0  0  0  0  0  0  0
    0.1020   11.4470   -5.5570 N   0  0  0  0  0  0  0  0  0  0  0  0
    0.4790   13.7650   -4.8860 C   0  0  0  0  0  0  0  0  0  0  0  0
    0.6910   11.1270   -6.7590 C   0  0  0  0  0  0  0  0  0  0  0  0
    1.6440   11.7400   -7.1680 O   0  0  0  0  0  0  0  0  0  0  0  0
    0.0780    9.9470   -7.5000 C   0  0  0  0  0  0  0  0  0  0  0  0
   -1.2200   10.3150   -8.2230 C   0  0  0  0  0  0  0  0  0  0  0  0
   -0.2690    8.7550   -6.5860 C   0  0  0  0  0  0  0  0  0  0  0  0
   -2.1180    9.0940   -8.0780 C   0  0  0  0  0  0  0  0  0  0  0  0
   -1.7680    8.5470   -6.7060 C   0  0  0  0  0  0  0  0  0  0  0  0
  1  2  1  0
  2  3  1  0
  2  4  2  0
  3  5  1  0
  4  6  1  0
  5  6  2  0
  5  7  1  0
  6  8  1  0
  7  9  2  0
  8 10  2  0
  9 10  1  0
  9 11  1  0
 11 12  1  0
 12 13  1  0
 13 14  1  0
 14 15  1  0
 15 16  1  0
 15 17  2  0
 16 18  1  0
 16 19  1  1
 18 20  1  0
 20 21  2  0
 20 22  1  0
 22 23  1  0
 22 24  1  0
 23 25  1  0
 24 26  1  0
 25 26  1  0
M  END
>  <comRMSD>  (390) 
0.236624

>  <∆∆G>  (390) 
-7.983727

>  <N_constrained_atoms>  (390) 
23.0

>  <LE>  (390) 
-0.307066

>  <ref_pdb>  (390) 
x0104_0

>  <ref_mols>  (390) 
x0371_0_A_β,x0727_0_A_α

>  <%Rank>  (390) 
6.674674

>  <generation_date>  (390) 
nan

>  <method>  (390) 
nan

>  <submitter_email>  (390) 
nan

>  <original SMILES>  (390) 
Cc1nc2ccc(CCCOC(=O)[C@H](C)NC(=O)C3CCCC3)cc2[nH]1

>  <ref_url>  (390) 
nan

>  <submitter_name>  (390) 
nan

>  <submitter_institution>  (390) 
nan

$$$$
x1015_0_A_α-x0895_0_A_α
     RDKit          3D

 25 27  0  0  0  0  0  0  0  0999 V2000
   -1.3460   14.3500   -4.3460 C   0  0  0  0  0  0  0  0  0  0  0  0
   -0.0290   13.6100   -4.1090 C   0  0  2  0  0  0  0  0  0  0  0  0
   -0.2080   12.1590   -4.0250 N   0  0  0  0  0  0  0  0  0  0  0  0
    0.4440   13.8430   -2.6920 C   0  0  0  0  0  0  0  0  0  0  0  0
    0.4750   14.8850   -1.9660 N   0  0  0  0  0  0  0  0  0  0  0  0
    0.2860   11.6520   -2.8050 C   0  0  0  0  0  0  0  0  0  0  0  0
    0.8980   12.6830   -2.1820 N   0  0  0  0  0  0  0  0  0  0  0  0
   -0.5650   11.3750   -5.1340 C   0  0  0  0  0  0  0  0  0  0  0  0
    0.2180   10.5130   -2.3390 O   0  0  0  0  0  0  0  0  0  0  0  0
    1.0150   14.6440   -0.6390 C   0  0  0  0  0  0  0  0  0  0  0  0
    0.0100   11.5740   -6.3930 C   0  0  0  0  0  0  0  0  0  0  0  0
   -1.5220   10.3600   -4.9940 C   0  0  0  0  0  0  0  0  0  0  0  0
    0.0760   15.1510    0.4430 C   0  0  0  0  0  0  0  0  0  0  0  0
   -0.3560   10.7830   -7.4830 C   0  0  0  0  0  0  0  0  0  0  0  0
   -1.8920    9.5660   -6.0780 C   0  0  0  0  0  0  0  0  0  0  0  0
   -0.3990   14.1010    1.4290 C   0  0  0  0  0  0  0  0  0  0  0  0
   -1.3070    9.7820   -7.3200 C   0  0  0  0  0  0  0  0  0  0  0  0
   -1.7690    8.8020   -8.6520 Cl  0  0  0  0  0  0  0  0  0  0  0  0
   -1.7090   14.4260    1.9610 N   0  0  0  0  0  0  0  0  0  0  0  0
   -2.6980   14.6890    1.1930 C   0  0  0  0  0  0  0  0  0  0  0  0
   -4.0800   15.0210    1.7150 C   0  0  0  0  0  0  0  0  0  0  0  0
   -2.7210   14.7180   -0.1610 N   0  0  0  0  0  0  0  0  0  0  0  0
   -4.7000   15.4430    0.4970 N   0  0  0  0  0  0  0  0  0  0  0  0
   -3.9370   15.1250   -0.5940 C   0  0  0  0  0  0  0  0  0  0  0  0
   -4.3110   15.1900   -1.7480 O   0  0  0  0  0  0  0  0  0  0  0  0
  2  1  1  1
  2  3  1  0
  2  4  1  0
  4  5  2  3
  3  6  1  0
  4  7  1  0
  6  7  1  0
  3  8  1  0
  6  9  2  0
  5 10  1  0
  8 11  2  0
  8 12  1  0
 10 13  1  0
 11 14  1  0
 12 15  2  0
 13 16  1  0
 14 17  2  0
 15 17  1  0
 17 18  1  0
 16 19  1  0
 19 20  2  3
 20 21  1  0
 20 22  1  0
 21 23  1  0
 22 24  1  0
 23 24  1  0
 24 25  2  0
M  END
>  <comRMSD>  (391) 
0.246396

>  <∆∆G>  (391) 
-9.712039

>  <N_constrained_atoms>  (391) 
22.0

>  <LE>  (391) 
-0.388482

>  <ref_pdb>  (391) 
x0104_0

>  <ref_mols>  (391) 
x1015_0_A_α,x0895_0_A_α

>  <%Rank>  (391) 
6.691833

>  <generation_date>  (391) 
nan

>  <method>  (391) 
nan

>  <submitter_email>  (391) 
nan

>  <original SMILES>  (391) 
CC1C(=NCCCN=C2CNC(=O)N2)NC(=O)N1c1ccc(Cl)cc1

>  <ref_url>  (391) 
nan

>  <submitter_name>  (391) 
nan

>  <submitter_institution>  (391) 
nan

$$$$
x0465_0_A_α-x0837_0_A_α
     RDKit          3D

 24 25  0  0  0  0  0  0  0  0999 V2000
    2.2140   13.0600   -4.8540 C   0  0  0  0  0  0  0  0  0  0  0  0
    0.8360   12.4680   -4.5400 C   0  0  1  0  0  0  0  0  0  0  0  0
    0.6010   11.4970   -5.4980 O   0  0  0  0  0  0  0  0  0  0  0  0
    0.7940   11.9590   -3.1300 C   0  0  0  0  0  0  0  0  0  0  0  0
    0.9870   12.6910   -2.1180 N   0  0  0  0  0  0  0  0  0  0  0  0
    0.5140   10.6150   -2.9120 O   0  0  0  0  0  0  0  0  0  0  0  0
   -0.5870   10.8250   -5.6460 C   0  0  0  0  0  0  0  0  0  0  0  0
    1.2630   14.0750   -2.0360 C   0  0  0  0  0  0  0  0  0  0  0  0
   -0.7000    9.7680   -6.5830 C   0  0  0  0  0  0  0  0  0  0  0  0
   -1.7350   11.0890   -4.9390 C   0  0  0  0  0  0  0  0  0  0  0  0
    0.3950    9.4560   -7.3190 F   0  0  0  0  0  0  0  0  0  0  0  0
    0.0080   14.8690   -2.0510 C   0  0  0  0  0  0  0  0  0  0  0  0
   -1.8380    9.0590   -6.7810 C   0  0  0  0  0  0  0  0  0  0  0  0
   -2.9280   10.3810   -5.1150 C   0  0  0  0  0  0  0  0  0  0  0  0
   -1.1340   13.8960   -2.2540 C   0  0  0  0  0  0  0  0  0  0  0  0
   -2.9520    9.3730   -6.0390 C   0  0  0  0  0  0  0  0  0  0  0  0
   -3.0100   14.8050   -2.6000 I   0  0  0  0  0  0  0  0  0  0  0  0
   -4.2530   14.5230   -0.9110 C   0  0  1  0  0  0  0  0  0  0  0  0
   -3.6270   15.0730    0.2940 C   0  0  0  0  0  0  0  0  0  0  0  0
   -5.6270   15.1050   -1.0850 C   0  0  0  0  0  0  0  0  0  0  0  0
   -4.3230   15.2360    1.3770 C   0  0  0  0  0  0  0  0  0  0  0  0
   -6.4090   14.8620    0.1570 C   0  0  0  0  0  0  0  0  0  0  0  0
   -7.6610   14.6630    0.1160 O   0  0  0  0  0  0  0  0  0  0  0  0
   -5.6890   14.8700    1.3870 N   0  0  0  0  0  0  0  0  0  0  0  0
  2  1  1  6
  2  3  1  0
  2  4  1  0
  4  5  2  3
  4  6  1  0
  3  7  1  0
  5  8  1  0
  7  9  2  0
  7 10  1  0
  9 11  1  0
  8 12  1  0
  9 13  1  0
 10 14  2  0
 12 15  1  0
 13 16  2  0
 14 16  1  0
 15 17  1  0
 18 17  1  6
 18 19  1  0
 18 20  1  0
 19 21  2  0
 20 22  1  0
 22 23  2  0
 21 24  1  0
 22 24  1  0
M  END
>  <comRMSD>  (392) 
0.173487

>  <∆∆G>  (392) 
-7.436964

>  <N_constrained_atoms>  (392) 
21.0

>  <LE>  (392) 
-0.309873

>  <ref_pdb>  (392) 
x0104_0

>  <ref_mols>  (392) 
x0465_0_A_α,x0837_0_A_α

>  <%Rank>  (392) 
6.708991

>  <generation_date>  (392) 
nan

>  <method>  (392) 
nan

>  <submitter_email>  (392) 
nan

>  <original SMILES>  (392) 
C[C@@H](Oc1ccccc1F)C(O)=NCCCIC1C=CNC(=O)C1

>  <ref_url>  (392) 
nan

>  <submitter_name>  (392) 
nan

>  <submitter_institution>  (392) 
nan

$$$$
x0849_0_A_α-x0727_0_A_α
     RDKit          3D

 25 27  0  0  0  0  0  0  0  0999 V2000
   -3.8390   15.2170   -2.8070 Br  0  0  0  0  0  0  0  0  0  0  0  0
   -3.6430   15.1930   -0.9210 C   0  0  0  0  0  0  0  0  0  0  0  0
   -2.4510   14.7760   -0.3380 C   0  0  0  0  0  0  0  0  0  0  0  0
   -4.7080   15.5870   -0.1330 C   0  0  0  0  0  0  0  0  0  0  0  0
   -2.3660   14.7720    1.0530 C   0  0  0  0  0  0  0  0  0  0  0  0
   -4.5080   15.5340    1.2250 C   0  0  0  0  0  0  0  0  0  0  0  0
   -1.3460   14.3600   -1.0810 C   0  0  0  0  0  0  0  0  0  0  0  0
   -3.3750   15.1390    1.8010 N   0  0  0  0  0  0  0  0  0  0  0  0
   -1.2770   14.3930    1.6830 N   0  0  0  0  0  0  0  0  0  0  0  0
   -0.2070   13.9430   -0.4520 C   0  0  0  0  0  0  0  0  0  0  0  0
    0.9490   13.4660   -1.2840 C   0  0  0  0  0  0  0  0  0  0  0  0
   -0.2360   13.9840    0.9450 C   0  0  0  0  0  0  0  0  0  0  0  0
    0.6830   13.4960   -2.6850 O   0  0  0  0  0  0  0  0  0  0  0  0
    0.6370   12.2680   -3.2960 C   0  0  0  0  0  0  0  0  0  0  0  0
    0.9440   12.4380   -4.7830 C   0  0  1  0  0  0  0  0  0  0  0  0
    0.3830   11.1880   -2.7540 O   0  0  0  0  0  0  0  0  0  0  0  0
    0.1840   11.4360   -5.5300 N   0  0  0  0  0  0  0  0  0  0  0  0
    0.5590   13.8370   -5.2170 C   0  0  0  0  0  0  0  0  0  0  0  0
    0.7050   11.0910   -6.7550 C   0  0  0  0  0  0  0  0  0  0  0  0
    1.6490   11.6940   -7.1990 O   0  0  0  0  0  0  0  0  0  0  0  0
    0.0930    9.9230   -7.5060 C   0  0  0  0  0  0  0  0  0  0  0  0
   -1.2060   10.2850   -8.2360 C   0  0  0  0  0  0  0  0  0  0  0  0
   -0.2350    8.7310   -6.5940 C   0  0  0  0  0  0  0  0  0  0  0  0
   -2.1310    9.0930   -8.0250 C   0  0  0  0  0  0  0  0  0  0  0  0
   -1.7430    8.5580   -6.6570 C   0  0  0  0  0  0  0  0  0  0  0  0
  1  2  1  0
  2  3  2  0
  2  4  1  0
  3  5  1  0
  4  6  2  0
  3  7  1  0
  5  8  2  0
  6  8  1  0
  5  9  1  0
  7 10  2  0
 10 11  1  0
  9 12  2  0
 10 12  1  0
 11 13  1  0
 13 14  1  0
 14 15  1  0
 14 16  2  0
 15 17  1  0
 15 18  1  6
 17 19  1  0
 19 20  2  0
 19 21  1  0
 21 22  1  0
 21 23  1  0
 22 24  1  0
 23 25  1  0
 24 25  1  0
M  END
>  <comRMSD>  (393) 
0.474601

>  <∆∆G>  (393) 
-7.615201

>  <N_constrained_atoms>  (393) 
24.0

>  <LE>  (393) 
-0.304608

>  <ref_pdb>  (393) 
x0104_0

>  <ref_mols>  (393) 
x0849_0_A_α,x0727_0_A_α

>  <%Rank>  (393) 
6.72615

>  <generation_date>  (393) 
nan

>  <method>  (393) 
nan

>  <submitter_email>  (393) 
nan

>  <original SMILES>  (393) 
C[C@H](NC(=O)C1CCCC1)C(=O)OCc1cnc2nccc(Br)c2c1

>  <ref_url>  (393) 
nan

>  <submitter_name>  (393) 
nan

>  <submitter_institution>  (393) 
nan

$$$$
6fx_7_0A_β-4IQY_0_A_α
     RDKit          3D

 17 17  0  0  0  0  0  0  0  0999 V2000
   -1.8590   21.3970   -8.6390 O   0  0  0  0  0  0  0  0  0  0  0  0
   -0.9040   20.2730   -7.9500 P   0  0  1  0  0  0  0  0  0  0  0  0
   -1.4480   19.9570   -6.5000 O   0  0  0  0  0  0  0  0  0  0  0  0
   -3.2610   21.6630   -8.4240 C   0  0  1  0  0  0  0  0  0  0  0  0
   -0.6070   19.0030   -8.6940 O   0  0  0  0  0  0  0  0  0  0  0  0
    0.4670   21.0590   -7.6940 O   0  0  0  0  0  0  0  0  0  0  0  0
   -3.8010   20.9260   -7.3290 O   0  0  0  0  0  0  0  0  0  0  0  0
   -3.6050   23.1540   -8.1480 C   0  0  1  0  0  0  0  0  0  0  0  0
   -1.6780   18.4510   -6.0440 P   0  0  0  0  0  0  0  0  0  0  0  0
   -4.4360   23.7610   -9.1640 O   0  0  0  0  0  0  0  0  0  0  0  0
   -4.8120   21.7130   -6.7040 C   0  0  1  0  0  0  0  0  0  0  0  0
   -4.3310   23.1440   -6.7980 C   0  0  2  0  0  0  0  0  0  0  0  0
   -0.3810   17.6480   -6.4740 O   0  0  0  0  0  0  0  0  0  0  0  0
   -2.0450   18.2280   -4.6450 O   0  0  0  0  0  0  0  0  0  0  0  0
   -2.7600   17.8740   -7.0540 O   0  0  0  0  0  0  0  0  0  0  0  0
   -6.0420   21.5790   -7.4050 O   0  0  0  0  0  0  0  0  0  0  0  0
   -5.4720   24.0200   -6.8000 O   0  0  0  0  0  0  0  0  0  0  0  0
  1  2  1  0
  2  3  1  0
  4  1  1  1
  2  5  2  0
  2  6  1  1
  4  7  1  0
  4  8  1  0
  3  9  1  0
  8 10  1  6
  7 11  1  0
  8 12  1  0
 11 12  1  0
  9 13  1  0
  9 14  2  0
  9 15  1  0
 11 16  1  6
 12 17  1  6
M  END
>  <comRMSD>  (394) 
0.664821

>  <∆∆G>  (394) 
-12.489303

>  <N_constrained_atoms>  (394) 
17.0

>  <LE>  (394) 
-0.734665

>  <ref_pdb>  (394) 
x0104_0

>  <ref_mols>  (394) 


>  <%Rank>  (394) 
6.743308

>  <generation_date>  (394) 
nan

>  <method>  (394) 
nan

>  <submitter_email>  (394) 
nan

>  <original SMILES>  (394) 
O=P(O)(O)OP(=O)(O)OC1OC(O)C(O)C1O

>  <ref_url>  (394) 
nan

>  <submitter_name>  (394) 
nan

>  <submitter_institution>  (394) 
nan

$$$$
x1012_0_A_α-x0465_0_A_α
     RDKit          3D

 22 23  0  0  0  0  0  0  0  0999 V2000
   -0.3210   18.3410   -4.7720 N   0  0  0  0  0  0  0  0  0  0  0  0
   -1.3250   17.4530   -4.8060 C   0  0  0  0  0  0  0  0  0  0  0  0
   -2.4470   17.8600   -4.9500 O   0  0  0  0  0  0  0  0  0  0  0  0
   -1.0180   16.1440   -4.6320 N   0  0  0  0  0  0  0  0  0  0  0  0
   -2.0460   15.1370   -4.2440 C   0  0  0  0  0  0  0  0  0  0  0  0
    0.4260   15.9080   -4.4320 C   0  0  0  0  0  0  0  0  0  0  0  0
   -1.6030   14.1570   -3.1530 C   0  0  0  0  0  0  0  0  0  0  0  0
    0.7220   15.0610   -3.2150 C   0  0  0  0  0  0  0  0  0  0  0  0
   -0.1640   13.8610   -3.4530 C   0  0  0  0  0  0  0  0  0  0  0  0
    0.5010   12.5130   -3.3220 C   0  0  0  0  0  0  0  0  0  0  0  0
   -0.3100   11.4280   -2.8980 O   0  0  0  0  0  0  0  0  0  0  0  0
    1.5640   12.6060   -2.3670 O   0  0  0  0  0  0  0  0  0  0  0  0
    1.0140   12.4390   -4.7920 C   0  0  1  0  0  0  0  0  0  0  0  0
    2.4700   12.8630   -4.9240 C   0  0  0  0  0  0  0  0  0  0  0  0
    0.7620   11.2140   -5.4970 O   0  0  0  0  0  0  0  0  0  0  0  0
   -0.5120   10.7260   -5.6630 C   0  0  0  0  0  0  0  0  0  0  0  0
   -0.7130    9.6840   -6.5720 C   0  0  0  0  0  0  0  0  0  0  0  0
   -1.5970   11.2330   -4.9520 C   0  0  0  0  0  0  0  0  0  0  0  0
    0.3220    9.1930   -7.2680 F   0  0  0  0  0  0  0  0  0  0  0  0
   -1.9670    9.1360   -6.7780 C   0  0  0  0  0  0  0  0  0  0  0  0
   -2.8700   10.6870   -5.1530 C   0  0  0  0  0  0  0  0  0  0  0  0
   -3.0530    9.6390   -6.0640 C   0  0  0  0  0  0  0  0  0  0  0  0
  1  2  1  0
  2  3  2  0
  2  4  1  0
  4  5  1  0
  4  6  1  0
  5  7  1  0
  6  8  1  0
  7  9  1  0
  8  9  1  0
  9 10  1  0
 10 11  1  0
 10 12  1  0
 10 13  1  0
 13 14  1  1
 13 15  1  0
 15 16  1  0
 16 17  2  0
 16 18  1  0
 17 19  1  0
 17 20  1  0
 18 21  2  0
 20 22  2  0
 21 22  1  0
M  END
>  <comRMSD>  (395) 
0.53925

>  <∆∆G>  (395) 
-6.38523

>  <N_constrained_atoms>  (395) 
22.0

>  <LE>  (395) 
-0.290238

>  <ref_pdb>  (395) 
x0104_0

>  <ref_mols>  (395) 
x1012_0_A_α,x0465_0_A_α

>  <%Rank>  (395) 
6.760467

>  <generation_date>  (395) 
nan

>  <method>  (395) 
nan

>  <submitter_email>  (395) 
nan

>  <original SMILES>  (395) 
C[C@@H](Oc1ccccc1F)C(O)(O)C1CCN(C(N)=O)CC1

>  <ref_url>  (395) 
nan

>  <submitter_name>  (395) 
nan

>  <submitter_institution>  (395) 
nan

$$$$
5cms_R_17_R_β-1HJZ_0_A_α
     RDKit          3D

 17 17  0  0  0  0  0  0  0  0999 V2000
   -1.4950   20.8990   -8.4930 O   0  0  0  0  0  0  0  0  0  0  0  0
   -0.5930   19.8100   -7.7890 P   0  0  2  0  0  0  0  0  0  0  0  0
   -1.2990   19.3520   -6.4610 O   0  0  0  0  0  0  0  0  0  0  0  0
   -1.9300   21.9650   -7.6480 C   0  0  0  0  0  0  0  0  0  0  0  0
    0.9620   20.2780   -7.4340 N   0  0  0  0  0  0  0  0  0  0  0  0
   -0.3500   18.5600   -8.7390 O   0  0  0  0  0  0  0  0  0  0  0  0
   -3.3780   22.2390   -7.7390 N   0  0  0  0  0  0  0  0  0  0  0  0
   -1.7190   17.8920   -6.0650 P   0  0  0  0  0  0  0  0  0  0  0  0
    1.1940   21.6680   -7.6550 O   0  0  0  0  0  0  0  0  0  0  0  0
   -3.6800   22.7060   -9.1000 C   0  0  0  0  0  0  0  0  0  0  0  0
   -3.7370   23.3210   -6.8030 C   0  0  0  0  0  0  0  0  0  0  0  0
   -0.3590   17.0800   -5.9940 O   0  0  0  0  0  0  0  0  0  0  0  0
   -2.8210   17.2360   -6.7840 O   0  0  0  0  0  0  0  0  0  0  0  0
   -1.9760   18.0000   -4.5130 O   0  0  0  0  0  0  0  0  0  0  0  0
   -5.1460   23.1060   -9.2470 C   0  0  0  0  0  0  0  0  0  0  0  0
   -5.1830   23.7790   -7.0160 C   0  0  0  0  0  0  0  0  0  0  0  0
   -5.4390   24.1890   -8.3670 O   0  0  0  0  0  0  0  0  0  0  0  0
  1  2  1  0
  2  3  1  0
  1  4  1  0
  2  5  2  3
  2  6  1  6
  4  7  1  0
  3  8  1  0
  5  9  1  0
  7 10  1  0
  7 11  1  0
  8 12  1  0
  8 13  2  0
  8 14  1  0
 10 15  1  0
 11 16  1  0
 15 17  1  0
 16 17  1  0
M  END
>  <comRMSD>  (396) 
0.672901

>  <∆∆G>  (396) 
-12.756882

>  <N_constrained_atoms>  (396) 
17.0

>  <LE>  (396) 
-0.750405

>  <ref_pdb>  (396) 
x0104_0

>  <ref_mols>  (396) 


>  <%Rank>  (396) 
6.777625

>  <generation_date>  (396) 
nan

>  <method>  (396) 
nan

>  <submitter_email>  (396) 
nan

>  <original SMILES>  (396) 
O=P(O)(O)OP(O)(=NO)OCN1CCOCC1

>  <ref_url>  (396) 
nan

>  <submitter_name>  (396) 
nan

>  <submitter_institution>  (396) 
nan

$$$$
x1018_0_A_α-x0628_0_A_α
     RDKit          3D

 23 25  0  0  0  0  0  0  0  0999 V2000
   -8.2630   14.5820    0.9450 Cl  0  0  0  0  0  0  0  0  0  0  0  0
   -6.6270   14.7180    0.3910 C   0  0  0  0  0  0  0  0  0  0  0  0
   -5.5180   14.8450    1.3820 C   0  0  0  0  0  0  0  0  0  0  0  0
   -6.4540   14.7090   -0.8960 N   0  0  0  0  0  0  0  0  0  0  0  0
   -5.1380   14.8130   -1.2430 N   0  0  0  0  0  0  0  0  0  0  0  0
   -4.2790   14.5580    0.9300 C   0  0  0  0  0  0  0  0  0  0  0  0
   -4.7950   14.8310   -2.5900 N   0  0  0  0  0  0  0  0  0  0  0  0
   -4.1150   14.1380   -0.4860 C   0  0  2  0  0  0  0  0  0  0  0  0
   -2.8990   14.4780   -1.2280 N   0  0  0  0  0  0  0  0  0  0  0  0
   -3.3680   14.5420   -2.6360 N   0  0  0  0  0  0  0  0  0  0  0  0
   -3.2120   13.2620   -3.4390 C   0  0  0  0  0  0  0  0  0  0  0  0
   -1.8140   12.5740   -3.4280 C   0  0  0  0  0  0  0  0  0  0  0  0
   -1.3770   11.7740   -4.6550 C   0  0  0  0  0  0  0  0  0  0  0  0
   -1.9200   10.6780   -5.1890 N   0  0  0  0  0  0  0  0  0  0  0  0
   -0.2720   12.0990   -5.4140 N   0  0  0  0  0  0  0  0  0  0  0  0
    0.6590   13.1980   -5.2530 C   0  0  0  0  0  0  0  0  0  0  0  0
   -1.0990   10.3840   -6.2590 C   0  0  0  0  0  0  0  0  0  0  0  0
   -0.0870   11.2330   -6.4280 N   0  0  0  0  0  0  0  0  0  0  0  0
   -1.3080    9.2240   -7.1500 C   0  0  0  0  0  0  0  0  0  0  0  0
    1.7240   12.9530   -4.1940 C   0  0  0  0  0  0  0  0  0  0  0  0
    1.1460   12.2640   -2.9890 C   0  0  0  0  0  0  0  0  0  0  0  0
    0.6100   11.1670   -2.9600 O   0  0  0  0  0  0  0  0  0  0  0  0
    1.2790   12.9940   -1.8730 O   0  0  0  0  0  0  0  0  0  0  0  0
  1  2  1  0
  2  3  1  0
  2  4  2  0
  4  5  1  0
  3  6  2  0
  5  7  1  0
  5  8  1  0
  8  6  1  1
  8  9  1  0
  7 10  1  0
  9 10  1  0
 10 11  1  0
 11 12  1  0
 12 13  1  0
 13 14  2  0
 13 15  1  0
 15 16  1  0
 14 17  1  0
 15 18  1  0
 17 18  2  0
 17 19  1  0
 16 20  1  0
 20 21  1  0
 21 22  2  0
 21 23  1  0
M  END
>  <comRMSD>  (397) 
0.368269

>  <∆∆G>  (397) 
-4.03117

>  <N_constrained_atoms>  (397) 
22.0

>  <LE>  (397) 
-0.175268

>  <ref_pdb>  (397) 
x0104_0

>  <ref_mols>  (397) 
x1018_0_A_α,x0628_0_A_α

>  <%Rank>  (397) 
6.794784

>  <generation_date>  (397) 
nan

>  <method>  (397) 
nan

>  <submitter_email>  (397) 
nan

>  <original SMILES>  (397) 
Cc1nc(CCN2NC3C=CC(Cl)=NN3N2)n(CCC(=O)O)n1

>  <ref_url>  (397) 
nan

>  <submitter_name>  (397) 
nan

>  <submitter_institution>  (397) 
nan

$$$$
x0592_0_A_α-x0950_0_A_α
     RDKit          3D

 19 19  0  0  0  0  0  0  0  0999 V2000
   -2.7870   14.9000    1.2190 N   0  0  0  0  0  0  0  0  0  0  0  0
   -3.2020   14.7750   -0.0780 C   0  0  0  0  0  0  0  0  0  0  0  0
   -2.5110   14.5920   -1.1440 N   0  0  0  0  0  0  0  0  0  0  0  0
   -4.6470   14.8510   -0.2330 C   0  0  0  0  0  0  0  0  0  0  0  0
   -1.0450   14.4730   -1.0740 C   0  0  0  0  0  0  0  0  0  0  0  0
   -5.4550   15.2240   -1.3380 C   0  0  0  0  0  0  0  0  0  0  0  0
   -5.5760   14.5420    0.7400 C   0  0  0  0  0  0  0  0  0  0  0  0
   -0.6770   13.0800   -1.5950 C   0  0  0  0  0  0  0  0  0  0  0  0
   -6.7660   15.1540   -1.0790 N   0  0  0  0  0  0  0  0  0  0  0  0
   -6.8080   14.7360    0.2000 N   0  0  0  0  0  0  0  0  0  0  0  0
   -8.0780   14.5340    0.8670 C   0  0  0  0  0  0  0  0  0  0  0  0
    0.6890   13.0330   -2.0490 O   0  0  0  0  0  0  0  0  0  0  0  0
   -7.8880   14.0700    2.3060 C   0  0  0  0  0  0  0  0  0  0  0  0
    0.9030   12.0970   -3.0190 C   0  0  0  0  0  0  0  0  0  0  0  0
   -7.1520   15.0400    3.0450 O   0  0  0  0  0  0  0  0  0  0  0  0
    1.5410   12.7340   -4.2640 C   0  0  1  0  0  0  0  0  0  0  0  0
    0.6140   10.9120   -2.9140 O   0  0  0  0  0  0  0  0  0  0  0  0
    3.0320   12.4300   -4.2900 C   0  0  0  0  0  0  0  0  0  0  0  0
    0.9590   12.2920   -5.4860 O   0  0  0  0  0  0  0  0  0  0  0  0
  1  2  1  0
  2  3  2  3
  2  4  1  0
  3  5  1  0
  4  6  1  0
  4  7  2  0
  5  8  1  0
  6  9  2  0
  7 10  1  0
  9 10  1  0
 10 11  1  0
  8 12  1  0
 11 13  1  0
 12 14  1  0
 13 15  1  0
 14 16  1  0
 14 17  2  0
 16 18  1  6
 16 19  1  0
M  END
>  <comRMSD>  (398) 
0.200588

>  <∆∆G>  (398) 
-7.478027

>  <N_constrained_atoms>  (398) 
17.0

>  <LE>  (398) 
-0.39358

>  <ref_pdb>  (398) 
x0104_0

>  <ref_mols>  (398) 
x0592_0_A_α,x0950_0_A_α

>  <%Rank>  (398) 
6.811942

>  <generation_date>  (398) 
nan

>  <method>  (398) 
nan

>  <submitter_email>  (398) 
nan

>  <original SMILES>  (398) 
C[C@@H](O)C(=O)OCCN=C(N)c1cnn(CCO)c1

>  <ref_url>  (398) 
nan

>  <submitter_name>  (398) 
nan

>  <submitter_institution>  (398) 
nan

$$$$
x0724_0_A_α-x0969_0_A_α
     RDKit          3D

 14 15  0  0  0  0  0  0  0  0999 V2000
   -8.2600   13.7610    4.4470 N   0  0  0  0  0  0  0  0  0  0  0  0
   -8.7120   13.9430    5.8200 C   0  0  0  0  0  0  0  0  0  0  0  0
   -8.4530   14.9750    3.6650 C   0  0  0  0  0  0  0  0  0  0  0  0
   -7.7610   14.8210    2.3550 C   0  0  0  0  0  0  0  0  0  0  0  0
   -6.4030   14.8480    2.0910 C   0  0  0  0  0  0  0  0  0  0  0  0
   -8.3350   14.6220    1.0820 C   0  0  0  0  0  0  0  0  0  0  0  0
   -7.4270   14.5410    0.1090 N   0  0  0  0  0  0  0  0  0  0  0  0
   -6.2280   14.6870    0.7350 N   0  0  0  0  0  0  0  0  0  0  0  0
   -5.0070   14.6740    0.0110 C   0  0  0  0  0  0  0  0  0  0  0  0
   -3.7930   14.7800    0.7070 C   0  0  0  0  0  0  0  0  0  0  0  0
   -4.9950   14.5640   -1.3870 C   0  0  0  0  0  0  0  0  0  0  0  0
   -2.5840   14.7770    0.0060 C   0  0  0  0  0  0  0  0  0  0  0  0
   -3.7820   14.5620   -2.0770 C   0  0  0  0  0  0  0  0  0  0  0  0
   -2.5800   14.6690   -1.3830 C   0  0  0  0  0  0  0  0  0  0  0  0
  1  2  1  0
  1  3  1  0
  3  4  1  0
  4  5  2  0
  4  6  1  0
  6  7  2  0
  5  8  1  0
  7  8  1  0
  8  9  1  0
  9 10  2  0
  9 11  1  0
 10 12  1  0
 11 13  2  0
 12 14  2  0
 13 14  1  0
M  END
>  <comRMSD>  (399) 
0.410567

>  <∆∆G>  (399) 
-5.152881

>  <N_constrained_atoms>  (399) 
14.0

>  <LE>  (399) 
-0.368063

>  <ref_pdb>  (399) 
x0104_0

>  <ref_mols>  (399) 
x0724_0_A_α,x0969_0_A_α

>  <%Rank>  (399) 
6.829101

>  <generation_date>  (399) 
nan

>  <method>  (399) 
nan

>  <submitter_email>  (399) 
nan

>  <original SMILES>  (399) 
CNCc1cnn(-c2ccccc2)c1

>  <ref_url>  (399) 
nan

>  <submitter_name>  (399) 
nan

>  <submitter_institution>  (399) 
nan

$$$$
x0724_0_A_α-x0371_0_A_α
     RDKit          3D

 20 22  0  0  0  0  0  0  0  0999 V2000
   -9.1820   13.6040    3.9700 N   0  0  0  0  0  0  0  0  0  0  0  0
   -9.3850   13.3140    5.3800 C   0  0  0  0  0  0  0  0  0  0  0  0
   -8.6510   14.9320    3.6640 C   0  0  2  0  0  0  0  0  0  0  0  0
   -9.8070   15.7290    3.3490 O   0  0  0  0  0  0  0  0  0  0  0  0
   -7.8450   14.8090    2.3820 C   0  0  0  0  0  0  0  0  0  0  0  0
   -7.9650   15.5990    4.9290 C   0  0  2  0  0  0  0  0  0  0  0  0
   -6.4720   14.8590    2.1740 C   0  0  0  0  0  0  0  0  0  0  0  0
   -8.3490   14.6130    1.0790 C   0  0  0  0  0  0  0  0  0  0  0  0
   -7.5900   14.5620    5.8770 O   0  0  0  0  0  0  0  0  0  0  0  0
   -8.8520   16.4980    5.7460 C   0  0  0  0  0  0  0  0  0  0  0  0
   -7.4050   14.5540    0.1420 N   0  0  0  0  0  0  0  0  0  0  0  0
   -6.2400   14.7100    0.8170 N   0  0  0  0  0  0  0  0  0  0  0  0
   -7.9160   14.9760    7.2040 C   0  0  0  0  0  0  0  0  0  0  0  0
   -8.8210   16.1330    7.0320 C   0  0  0  0  0  0  0  0  0  0  0  0
   -5.0010   14.7150    0.1220 C   0  0  0  0  0  0  0  0  0  0  0  0
   -3.7770   14.7750    0.8000 C   0  0  0  0  0  0  0  0  0  0  0  0
   -5.0150   14.6620   -1.2830 C   0  0  0  0  0  0  0  0  0  0  0  0
   -2.5820   14.7800    0.0740 C   0  0  0  0  0  0  0  0  0  0  0  0
   -3.8190   14.6710   -1.9980 C   0  0  0  0  0  0  0  0  0  0  0  0
   -2.6040   14.7290   -1.3230 C   0  0  0  0  0  0  0  0  0  0  0  0
  1  2  1  0
  1  3  1  0
  3  4  1  6
  3  5  1  0
  3  6  1  0
  5  7  2  0
  5  8  1  0
  6  9  1  0
  6 10  1  1
  8 11  2  0
  7 12  1  0
 11 12  1  0
  9 13  1  0
 10 14  2  0
 13 14  1  0
 12 15  1  0
 15 16  2  0
 15 17  1  0
 16 18  1  0
 17 19  2  0
 18 20  2  0
 19 20  1  0
M  END
>  <comRMSD>  (400) 
0.469605

>  <∆∆G>  (400) 
-4.428568

>  <N_constrained_atoms>  (400) 
20.0

>  <LE>  (400) 
-0.221428

>  <ref_pdb>  (400) 
x0104_0

>  <ref_mols>  (400) 
x0724_0_A_α,x0371_0_A_α

>  <%Rank>  (400) 
6.846259

>  <generation_date>  (400) 
nan

>  <method>  (400) 
nan

>  <submitter_email>  (400) 
nan

>  <original SMILES>  (400) 
CNC(O)(c1cnn(-c2ccccc2)c1)C1C=CCO1

>  <ref_url>  (400) 
nan

>  <submitter_name>  (400) 
nan

>  <submitter_institution>  (400) 
nan

$$$$
x0471_0_A_α-x0855_0_A_α
     RDKit          3D

 29 31  0  0  0  0  0  0  0  0999 V2000
   -8.8150   14.0800    2.6800 N   0  0  0  0  0  0  0  0  0  0  0  0
   -8.9590   14.9960    3.6930 C   0  0  0  0  0  0  0  0  0  0  0  0
   -9.2950   16.1600    3.4830 O   0  0  0  0  0  0  0  0  0  0  0  0
   -8.8500   14.4960    1.2950 C   0  0  0  0  0  0  0  0  0  0  0  0
   -8.6760   14.4370    5.0880 C   0  0  0  0  0  0  0  0  0  0  0  0
   -7.4450   14.6320    0.8180 C   0  0  0  0  0  0  0  0  0  0  0  0
   -9.8930   13.6750    5.6200 C   0  0  0  0  0  0  0  0  0  0  0  0
   -8.2820   15.5540    6.0520 C   0  0  0  0  0  0  0  0  0  0  0  0
   -7.1180   14.9910   -0.4710 N   0  0  0  0  0  0  0  0  0  0  0  0
   -6.3570   14.4400    1.5320 N   0  0  0  0  0  0  0  0  0  0  0  0
   -5.2970   14.6720    0.6950 C   0  0  0  0  0  0  0  0  0  0  0  0
   -5.7450   15.0230   -0.5700 C   0  0  0  0  0  0  0  0  0  0  0  0
   -4.8800   15.3160   -1.6210 C   0  0  0  0  0  0  0  0  0  0  0  0
   -3.9160   14.5990    0.9470 C   0  0  0  0  0  0  0  0  0  0  0  0
   -3.5020   15.2330   -1.3540 C   0  0  0  0  0  0  0  0  0  0  0  0
   -3.0050   14.8740   -0.0840 C   0  0  0  0  0  0  0  0  0  0  0  0
   -1.5120   14.7650    0.2030 C   0  0  0  0  0  0  0  0  0  0  0  0
   -0.6140   14.6680   -1.0450 C   0  0  0  0  0  0  0  0  0  0  0  0
    0.1610   13.3580   -1.1250 C   0  0  0  0  0  0  0  0  0  0  0  0
    0.9530   13.3160   -2.3370 O   0  0  0  0  0  0  0  0  0  0  0  0
    0.7560   12.2030   -3.1120 C   0  0  0  0  0  0  0  0  0  0  0  0
    0.7160   11.0630   -2.6660 O   0  0  0  0  0  0  0  0  0  0  0  0
    0.5760   12.5780   -4.5610 C   0  0  0  0  0  0  0  0  0  0  0  0
   -0.4420   11.7210   -5.1190 N   0  0  0  0  0  0  0  0  0  0  0  0
   -0.3030   10.7880   -6.1100 C   0  0  0  0  0  0  0  0  0  0  0  0
   -1.7020   11.8010   -4.6340 N   0  0  0  0  0  0  0  0  0  0  0  0
   -1.5420   10.2340   -6.2550 C   0  0  0  0  0  0  0  0  0  0  0  0
   -2.3710   10.8840   -5.3350 C   0  0  0  0  0  0  0  0  0  0  0  0
   -2.0680    8.8820   -7.4250 Br  0  0  0  0  0  0  0  0  0  0  0  0
  1  2  1  0
  2  3  2  0
  1  4  1  0
  2  5  1  0
  4  6  1  0
  5  7  1  0
  5  8  1  0
  6  9  1  0
  6 10  2  0
 10 11  1  0
  9 12  1  0
 11 12  2  0
 12 13  1  0
 11 14  1  0
 13 15  2  0
 14 16  2  0
 15 16  1  0
 16 17  1  0
 17 18  1  0
 18 19  1  0
 19 20  1  0
 20 21  1  0
 21 22  2  0
 21 23  1  0
 23 24  1  0
 24 25  1  0
 24 26  1  0
 25 27  2  0
 26 28  2  0
 27 28  1  0
 27 29  1  0
M  END
>  <comRMSD>  (401) 
0.285652

>  <∆∆G>  (401) 
-6.786679

>  <N_constrained_atoms>  (401) 
26.0

>  <LE>  (401) 
-0.234023

>  <ref_pdb>  (401) 
x0104_0

>  <ref_mols>  (401) 
x0471_0_A_α,x0855_0_A_α

>  <%Rank>  (401) 
6.863418

>  <generation_date>  (401) 
nan

>  <method>  (401) 
nan

>  <submitter_email>  (401) 
nan

>  <original SMILES>  (401) 
CC(C)C(=O)NCc1nc2cc(CCCOC(=O)Cn3cc(Br)cn3)ccc2[nH]1

>  <ref_url>  (401) 
nan

>  <submitter_name>  (401) 
nan

>  <submitter_institution>  (401) 
nan

$$$$
x0253_0_A_α-x0849_0_A_α
     RDKit          3D

 26 28  0  0  0  0  0  0  0  0999 V2000
    0.3250   11.9120   -5.5340 N   0  0  0  0  0  0  0  0  0  0  0  0
    1.0940   11.6130   -6.6150 C   0  0  0  0  0  0  0  0  0  0  0  0
    2.2200   12.0610   -6.6540 O   0  0  0  0  0  0  0  0  0  0  0  0
    0.7270   13.0790   -4.7930 C   0  0  0  0  0  0  0  0  0  0  0  0
    0.7540   12.8260   -3.3080 C   0  0  0  0  0  0  0  0  0  0  0  0
    0.5070   10.7260   -7.6560 C   0  0  0  0  0  0  0  0  0  0  0  0
    0.9500   13.8310   -2.5340 N   0  0  0  0  0  0  0  0  0  0  0  0
    0.5560   11.5450   -2.8970 O   0  0  0  0  0  0  0  0  0  0  0  0
   -0.4610    9.8150   -7.2310 C   0  0  0  0  0  0  0  0  0  0  0  0
    0.8710   10.7620   -9.0120 C   0  0  0  0  0  0  0  0  0  0  0  0
    0.9650   13.5480   -1.1260 C   0  0  0  0  0  0  0  0  0  0  0  0
   -1.0710    8.9420   -8.1370 C   0  0  0  0  0  0  0  0  0  0  0  0
    0.2690    9.8930   -9.9210 C   0  0  0  0  0  0  0  0  0  0  0  0
   -2.1110    7.9720   -7.6620 C   0  0  0  0  0  0  0  0  0  0  0  0
   -0.6970    8.9900   -9.4860 C   0  0  0  0  0  0  0  0  0  0  0  0
   -0.2110   14.0180   -0.3420 C   0  0  0  0  0  0  0  0  0  0  0  0
   -0.2570   14.0780    1.0470 C   0  0  0  0  0  0  0  0  0  0  0  0
   -1.3410   14.4030   -1.0050 C   0  0  0  0  0  0  0  0  0  0  0  0
   -2.4610   14.8100   -0.2890 C   0  0  0  0  0  0  0  0  0  0  0  0
   -1.3100   14.4760    1.7610 N   0  0  0  0  0  0  0  0  0  0  0  0
   -2.3910   14.8260    1.1040 C   0  0  0  0  0  0  0  0  0  0  0  0
   -3.6570   15.2010   -0.8910 C   0  0  0  0  0  0  0  0  0  0  0  0
   -3.8390   15.2030   -2.7830 Br  0  0  0  0  0  0  0  0  0  0  0  0
   -3.4120   15.1860    1.8330 N   0  0  0  0  0  0  0  0  0  0  0  0
   -4.7340   15.5850   -0.1180 C   0  0  0  0  0  0  0  0  0  0  0  0
   -4.5460   15.5520    1.2440 C   0  0  0  0  0  0  0  0  0  0  0  0
  1  2  1  0
  2  3  2  0
  1  4  1  0
  4  5  1  0
  2  6  1  0
  5  7  2  3
  5  8  1  0
  6  9  2  0
  6 10  1  0
  7 11  1  0
  9 12  1  0
 10 13  2  0
 12 14  1  0
 12 15  2  0
 13 15  1  0
 11 16  1  0
 16 17  2  0
 16 18  1  0
 18 19  2  0
 17 20  1  0
 19 21  1  0
 20 21  2  0
 19 22  1  0
 22 23  1  0
 21 24  1  0
 22 25  2  0
 24 26  2  0
 25 26  1  0
M  END
>  <comRMSD>  (402) 
0.47952

>  <∆∆G>  (402) 
-7.118967

>  <N_constrained_atoms>  (402) 
25.0

>  <LE>  (402) 
-0.273806

>  <ref_pdb>  (402) 
x0104_0

>  <ref_mols>  (402) 
x0253_0_A_α,x0849_0_A_α

>  <%Rank>  (402) 
6.880577

>  <generation_date>  (402) 
nan

>  <method>  (402) 
nan

>  <submitter_email>  (402) 
nan

>  <original SMILES>  (402) 
Cc1cccc(C(=O)NCC(O)=NCc2cnc3nccc(Br)c3c2)c1

>  <ref_url>  (402) 
nan

>  <submitter_name>  (402) 
nan

>  <submitter_institution>  (402) 
nan

$$$$
x0471_0_A_α-x0864_0_A_α
     RDKit          3D

 31 33  0  0  0  0  0  0  0  0999 V2000
   -8.8020   14.0640    2.6680 N   0  0  0  0  0  0  0  0  0  0  0  0
   -8.9860   14.9860    3.6720 C   0  0  0  0  0  0  0  0  0  0  0  0
   -9.3350   16.1460    3.4690 O   0  0  0  0  0  0  0  0  0  0  0  0
   -8.8210   14.4570    1.2700 C   0  0  0  0  0  0  0  0  0  0  0  0
   -8.7380   14.4630    5.0870 C   0  0  0  0  0  0  0  0  0  0  0  0
   -7.4010   14.6250    0.8380 C   0  0  0  0  0  0  0  0  0  0  0  0
   -9.9530   13.6940    5.5930 C   0  0  0  0  0  0  0  0  0  0  0  0
   -8.3300   15.5750    6.0500 C   0  0  0  0  0  0  0  0  0  0  0  0
   -7.0090   14.9080   -0.4530 N   0  0  0  0  0  0  0  0  0  0  0  0
   -6.3530   14.5260    1.6210 N   0  0  0  0  0  0  0  0  0  0  0  0
   -5.2570   14.7440    0.8360 C   0  0  0  0  0  0  0  0  0  0  0  0
   -5.6260   14.9900   -0.4750 C   0  0  0  0  0  0  0  0  0  0  0  0
   -4.6940   15.2440   -1.4830 C   0  0  0  0  0  0  0  0  0  0  0  0
   -3.9000   14.7400    1.1960 C   0  0  0  0  0  0  0  0  0  0  0  0
   -3.3320   15.2300   -1.1060 C   0  0  0  0  0  0  0  0  0  0  0  0
   -2.9180   14.9780    0.2250 C   0  0  0  0  0  0  0  0  0  0  0  0
   -1.4450   14.9390    0.6790 C   0  0  0  0  0  0  0  0  0  0  0  0
   -0.7000   13.6840    0.2300 C   0  0  0  0  0  0  0  0  0  0  0  0
    0.1580   13.7040   -1.0430 C   0  0  0  0  0  0  0  0  0  0  0  0
    0.2810   12.3220   -1.4780 N   0  0  0  0  0  0  0  0  0  0  0  0
    0.4290   11.8440   -2.6640 C   0  0  0  0  0  0  0  0  0  0  0  0
    0.5390   12.4960   -4.0490 C   0  0  0  0  0  0  0  0  0  0  0  0
    0.4800   10.4930   -2.6320 O   0  0  0  0  0  0  0  0  0  0  0  0
   -0.1780   11.7500   -5.0960 N   0  0  0  0  0  0  0  0  0  0  0  0
   -1.4020   11.1840   -4.7890 C   0  0  0  0  0  0  0  0  0  0  0  0
    0.4980   11.4380   -6.2790 C   0  0  0  0  0  0  0  0  0  0  0  0
    1.5080   12.0040   -6.6720 O   0  0  0  0  0  0  0  0  0  0  0  0
   -1.9320   10.2100   -5.5500 C   0  0  0  0  0  0  0  0  0  0  0  0
   -0.0680   10.3110   -7.0840 C   0  0  0  0  0  0  0  0  0  0  0  0
   -1.2240    9.7400   -6.7150 C   0  0  0  0  0  0  0  0  0  0  0  0
   -1.9820    8.3230   -7.6660 Br  0  0  0  0  0  0  0  0  0  0  0  0
  1  2  1  0
  2  3  2  0
  1  4  1  0
  2  5  1  0
  4  6  1  0
  5  7  1  0
  5  8  1  0
  6  9  1  0
  6 10  2  0
 10 11  1  0
  9 12  1  0
 11 12  2  0
 12 13  1  0
 11 14  1  0
 13 15  2  0
 14 16  2  0
 15 16  1  0
 16 17  1  0
 17 18  1  0
 18 19  1  0
 19 20  1  0
 20 21  2  3
 21 22  1  0
 21 23  1  0
 22 24  1  0
 24 25  1  0
 24 26  1  0
 26 27  2  0
 25 28  2  0
 26 29  1  0
 28 30  1  0
 29 30  2  0
 30 31  1  0
M  END
>  <comRMSD>  (403) 
0.389787

>  <∆∆G>  (403) 
-10.711934

>  <N_constrained_atoms>  (403) 
28.0

>  <LE>  (403) 
-0.345546

>  <ref_pdb>  (403) 
x0104_0

>  <ref_mols>  (403) 
x0471_0_A_α,x0864_0_A_α

>  <%Rank>  (403) 
6.897735

>  <generation_date>  (403) 
nan

>  <method>  (403) 
nan

>  <submitter_email>  (403) 
nan

>  <original SMILES>  (403) 
CC(C)C(=O)NCc1nc2cc(CCCN=C(O)Cn3ccc(Br)cc3=O)ccc2[nH]1

>  <ref_url>  (403) 
nan

>  <submitter_name>  (403) 
nan

>  <submitter_institution>  (403) 
nan

$$$$
x0626_0_A_α-x0727_0_A_α
     RDKit          3D

 27 28  0  0  0  0  0  0  0  0999 V2000
   -4.9910   14.8940    1.4250 N   0  0  0  0  0  0  0  0  0  0  0  0
   -6.1680   14.6920    0.7760 C   0  0  0  0  0  0  0  0  0  0  0  0
   -6.2000   14.8140   -0.4560 O   0  0  0  0  0  0  0  0  0  0  0  0
   -3.7650   14.8030    0.8700 C   0  0  0  0  0  0  0  0  0  0  0  0
   -7.4000   14.3340    1.5760 C   0  0  0  0  0  0  0  0  0  0  0  0
   -2.6010   14.6620    1.4610 N   0  0  0  0  0  0  0  0  0  0  0  0
   -3.7770   14.8820   -0.8360 S   0  0  0  0  0  0  0  0  0  0  0  0
   -8.6800   14.6890    0.8390 C   0  0  0  0  0  0  0  0  0  0  0  0
   -2.0850   14.7040   -0.8120 C   0  0  0  0  0  0  0  0  0  0  0  0
   -1.6420   14.6020    0.4910 C   0  0  0  0  0  0  0  0  0  0  0  0
   -0.2410   14.4410    0.8600 C   0  0  0  0  0  0  0  0  0  0  0  0
    0.6410   14.9830   -0.2400 C   0  0  0  0  0  0  0  0  0  0  0  0
    1.2800   13.9040   -1.0670 C   0  0  0  0  0  0  0  0  0  0  0  0
    1.1460   13.9350   -2.5470 C   0  0  0  0  0  0  0  0  0  0  0  0
    1.6790   12.6570   -2.8820 O   0  0  0  0  0  0  0  0  0  0  0  0
    0.8120   11.8690   -3.5330 C   0  0  0  0  0  0  0  0  0  0  0  0
    0.7740   12.3300   -4.9770 C   0  0  1  0  0  0  0  0  0  0  0  0
    0.1730   10.9380   -3.0480 O   0  0  0  0  0  0  0  0  0  0  0  0
    0.0430   11.3580   -5.7660 N   0  0  0  0  0  0  0  0  0  0  0  0
    0.1790   13.7170   -5.1130 C   0  0  0  0  0  0  0  0  0  0  0  0
    0.6140   10.9650   -6.9280 C   0  0  0  0  0  0  0  0  0  0  0  0
    1.5820   11.5440   -7.3510 O   0  0  0  0  0  0  0  0  0  0  0  0
    0.0190    9.7700   -7.6430 C   0  0  0  0  0  0  0  0  0  0  0  0
   -1.2680   10.1500   -8.3800 C   0  0  0  0  0  0  0  0  0  0  0  0
   -0.3430    8.6010   -6.7090 C   0  0  0  0  0  0  0  0  0  0  0  0
   -2.2870    9.0820   -8.0000 C   0  0  0  0  0  0  0  0  0  0  0  0
   -1.8560    8.6130   -6.6220 C   0  0  0  0  0  0  0  0  0  0  0  0
  1  2  1  0
  2  3  2  0
  1  4  1  0
  2  5  1  0
  4  6  2  0
  4  7  1  0
  5  8  1  0
  7  9  1  0
  6 10  1  0
  9 10  2  0
 10 11  1  0
 11 12  1  0
 12 13  1  0
 13 14  1  0
 14 15  1  0
 15 16  1  0
 16 17  1  0
 16 18  2  0
 17 19  1  0
 17 20  1  1
 19 21  1  0
 21 22  2  0
 21 23  1  0
 23 24  1  0
 23 25  1  0
 24 26  1  0
 25 27  1  0
 26 27  1  0
M  END
>  <comRMSD>  (404) 
0.307326

>  <∆∆G>  (404) 
-10.351351

>  <N_constrained_atoms>  (404) 
24.0

>  <LE>  (404) 
-0.383383

>  <ref_pdb>  (404) 
x0104_0

>  <ref_mols>  (404) 
x0626_0_A_α,x0727_0_A_α

>  <%Rank>  (404) 
6.914894

>  <generation_date>  (404) 
nan

>  <method>  (404) 
nan

>  <submitter_email>  (404) 
nan

>  <original SMILES>  (404) 
CCC(=O)Nc1nc(CCCCOC(=O)[C@H](C)NC(=O)C2CCCC2)cs1

>  <ref_url>  (404) 
nan

>  <submitter_name>  (404) 
nan

>  <submitter_institution>  (404) 
nan

$$$$
x0849_0_A_α-x0465_0_A_α
     RDKit          3D

 25 27  0  0  0  0  0  0  0  0999 V2000
   -3.8230   15.1970   -2.8270 Br  0  0  0  0  0  0  0  0  0  0  0  0
   -3.6470   15.1840   -0.9370 C   0  0  0  0  0  0  0  0  0  0  0  0
   -2.4590   14.7880   -0.3390 C   0  0  0  0  0  0  0  0  0  0  0  0
   -4.7260   15.5680   -0.1710 C   0  0  0  0  0  0  0  0  0  0  0  0
   -2.3910   14.7940    1.0580 C   0  0  0  0  0  0  0  0  0  0  0  0
   -4.5440   15.5250    1.1920 C   0  0  0  0  0  0  0  0  0  0  0  0
   -1.3390   14.3820   -1.0570 C   0  0  0  0  0  0  0  0  0  0  0  0
   -3.4170   15.1530    1.7860 N   0  0  0  0  0  0  0  0  0  0  0  0
   -1.3100   14.4370    1.7090 N   0  0  0  0  0  0  0  0  0  0  0  0
   -0.2100   13.9880   -0.3990 C   0  0  0  0  0  0  0  0  0  0  0  0
    0.9720   13.5150   -1.1860 C   0  0  0  0  0  0  0  0  0  0  0  0
   -0.2540   14.0390    0.9920 C   0  0  0  0  0  0  0  0  0  0  0  0
    0.8550   13.6170   -2.6190 N   0  0  0  0  0  0  0  0  0  0  0  0
    0.7330   12.5230   -3.2900 C   0  0  0  0  0  0  0  0  0  0  0  0
    0.6480   12.5880   -4.8100 C   0  0  1  0  0  0  0  0  0  0  0  0
    0.6880   11.2770   -2.7480 O   0  0  0  0  0  0  0  0  0  0  0  0
    1.9440   13.2330   -5.2390 C   0  0  0  0  0  0  0  0  0  0  0  0
    0.5570   11.3620   -5.5080 O   0  0  0  0  0  0  0  0  0  0  0  0
   -0.6590   10.7580   -5.6430 C   0  0  0  0  0  0  0  0  0  0  0  0
   -0.7230    9.7260   -6.5870 C   0  0  0  0  0  0  0  0  0  0  0  0
   -1.8070   11.0890   -4.9280 C   0  0  0  0  0  0  0  0  0  0  0  0
    0.3560    9.3770   -7.3020 F   0  0  0  0  0  0  0  0  0  0  0  0
   -1.9080    9.0310   -6.8130 C   0  0  0  0  0  0  0  0  0  0  0  0
   -3.0000   10.3930   -5.1540 C   0  0  0  0  0  0  0  0  0  0  0  0
   -3.0490    9.3660   -6.0940 C   0  0  0  0  0  0  0  0  0  0  0  0
  1  2  1  0
  2  3  2  0
  2  4  1  0
  3  5  1  0
  4  6  2  0
  3  7  1  0
  5  8  2  0
  6  8  1  0
  5  9  1  0
  7 10  2  0
 10 11  1  0
  9 12  2  0
 10 12  1  0
 11 13  1  0
 13 14  2  3
 14 15  1  0
 14 16  1  0
 15 17  1  6
 15 18  1  0
 18 19  1  0
 19 20  2  0
 19 21  1  0
 20 22  1  0
 20 23  1  0
 21 24  2  0
 23 25  2  0
 24 25  1  0
M  END
>  <comRMSD>  (405) 
0.447146

>  <∆∆G>  (405) 
-6.147539

>  <N_constrained_atoms>  (405) 
24.0

>  <LE>  (405) 
-0.245902

>  <ref_pdb>  (405) 
x0104_0

>  <ref_mols>  (405) 
x0849_0_A_α,x0465_0_A_α

>  <%Rank>  (405) 
6.932052

>  <generation_date>  (405) 
nan

>  <method>  (405) 
nan

>  <submitter_email>  (405) 
nan

>  <original SMILES>  (405) 
C[C@@H](Oc1ccccc1F)C(O)=NCc1cnc2nccc(Br)c2c1

>  <ref_url>  (405) 
nan

>  <submitter_name>  (405) 
nan

>  <submitter_institution>  (405) 
nan

$$$$
x0864_0_A_α-x0689_0_A_α
     RDKit          3D

 21 22  0  0  0  0  0  0  0  0999 V2000
    1.7170   11.5140   -6.8470 O   0  0  0  0  0  0  0  0  0  0  0  0
    0.6380   11.1040   -6.4490 C   0  0  0  0  0  0  0  0  0  0  0  0
   -0.0260   11.6230   -5.3560 N   0  0  0  0  0  0  0  0  0  0  0  0
   -0.0220    9.9830   -7.1490 C   0  0  0  0  0  0  0  0  0  0  0  0
    0.5550   12.8160   -4.7680 C   0  0  0  0  0  0  0  0  0  0  0  0
   -1.3090   11.2240   -5.0040 C   0  0  0  0  0  0  0  0  0  0  0  0
   -1.2430    9.5820   -6.7630 C   0  0  0  0  0  0  0  0  0  0  0  0
    0.6740   12.6470   -3.2740 C   0  0  0  0  0  0  0  0  0  0  0  0
   -2.1190    8.1710   -7.6090 Br  0  0  0  0  0  0  0  0  0  0  0  0
   -1.9210   10.2390   -5.6690 C   0  0  0  0  0  0  0  0  0  0  0  0
    0.7010   11.3610   -2.8540 O   0  0  0  0  0  0  0  0  0  0  0  0
    0.7370   13.6930   -2.5400 N   0  0  0  0  0  0  0  0  0  0  0  0
    0.8410   13.6170   -1.1080 C   0  0  0  0  0  0  0  0  0  0  0  0
   -0.3470   14.0730   -0.3390 C   0  0  0  0  0  0  0  0  0  0  0  0
   -1.5000   14.4510   -0.9560 C   0  0  0  0  0  0  0  0  0  0  0  0
   -0.3880   14.1410    1.0430 C   0  0  0  0  0  0  0  0  0  0  0  0
   -2.5940   14.8500   -0.2970 N   0  0  0  0  0  0  0  0  0  0  0  0
   -1.4580   14.5380    1.7510 N   0  0  0  0  0  0  0  0  0  0  0  0
   -2.5320   14.8760    1.0390 C   0  0  0  0  0  0  0  0  0  0  0  0
   -3.6440   15.2810    1.7380 N   0  0  0  0  0  0  0  0  0  0  0  0
   -4.7910   15.3470    0.8790 C   0  0  0  0  0  0  0  0  0  0  0  0
  1  2  2  0
  2  3  1  0
  2  4  1  0
  3  5  1  0
  3  6  1  0
  4  7  2  0
  5  8  1  0
  7  9  1  0
  6 10  2  0
  7 10  1  0
  8 11  1  0
  8 12  2  3
 12 13  1  0
 13 14  1  0
 14 15  2  0
 14 16  1  0
 15 17  1  0
 16 18  2  0
 17 19  2  0
 18 19  1  0
 19 20  1  0
 20 21  1  0
M  END
>  <comRMSD>  (406) 
0.412396

>  <∆∆G>  (406) 
-7.432785

>  <N_constrained_atoms>  (406) 
20.0

>  <LE>  (406) 
-0.353942

>  <ref_pdb>  (406) 
x0104_0

>  <ref_mols>  (406) 
x0864_0_A_α,x0689_0_A_α

>  <%Rank>  (406) 
6.949211

>  <generation_date>  (406) 
nan

>  <method>  (406) 
nan

>  <submitter_email>  (406) 
nan

>  <original SMILES>  (406) 
CNc1ncc(CN=C(O)Cn2ccc(Br)cc2=O)cn1

>  <ref_url>  (406) 
nan

>  <submitter_name>  (406) 
nan

>  <submitter_institution>  (406) 
nan

$$$$
x0628_0_A_α-x0592_0_A_α
     RDKit          3D

 25 26  0  0  0  0  0  0  0  0999 V2000
   -1.0400    9.1120   -7.1700 C   0  0  0  0  0  0  0  0  0  0  0  0
   -0.9150   10.3080   -6.3140 C   0  0  0  0  0  0  0  0  0  0  0  0
   -1.8190   10.6270   -5.3310 N   0  0  0  0  0  0  0  0  0  0  0  0
    0.0960   11.1680   -6.4380 N   0  0  0  0  0  0  0  0  0  0  0  0
   -0.1830   12.0720   -5.4790 N   0  0  0  0  0  0  0  0  0  0  0  0
   -1.3450   11.7500   -4.8040 C   0  0  0  0  0  0  0  0  0  0  0  0
   -1.9730   12.5280   -3.6670 C   0  0  0  0  0  0  0  0  0  0  0  0
    0.7290   13.1870   -5.3130 C   0  0  0  0  0  0  0  0  0  0  0  0
    1.7560   12.9590   -4.2060 C   0  0  0  0  0  0  0  0  0  0  0  0
   -1.2120   13.8060   -3.2350 C   0  0  0  0  0  0  0  0  0  0  0  0
    1.1670   12.2390   -3.0230 C   0  0  0  0  0  0  0  0  0  0  0  0
   -1.3730   14.1520   -1.7340 C   0  0  0  0  0  0  0  0  0  0  0  0
    0.6390   11.1360   -2.9950 O   0  0  0  0  0  0  0  0  0  0  0  0
    1.2720   12.9660   -1.9000 O   0  0  0  0  0  0  0  0  0  0  0  0
   -2.7940   14.3470   -1.4920 N   0  0  0  0  0  0  0  0  0  0  0  0
   -3.3740   14.6620   -0.3840 C   0  0  0  0  0  0  0  0  0  0  0  0
   -2.7310   14.8890    0.8070 N   0  0  0  0  0  0  0  0  0  0  0  0
   -4.8040   14.7820   -0.3210 C   0  0  0  0  0  0  0  0  0  0  0  0
   -5.6670   15.2610   -1.3320 C   0  0  0  0  0  0  0  0  0  0  0  0
   -5.6530   14.4520    0.7120 C   0  0  0  0  0  0  0  0  0  0  0  0
   -6.9500   15.2320   -0.9720 N   0  0  0  0  0  0  0  0  0  0  0  0
   -6.9160   14.7340    0.2790 N   0  0  0  0  0  0  0  0  0  0  0  0
   -8.1490   14.5480    1.0190 C   0  0  0  0  0  0  0  0  0  0  0  0
   -7.8830   14.1050    2.4530 C   0  0  0  0  0  0  0  0  0  0  0  0
   -7.1530   15.0930    3.1770 O   0  0  0  0  0  0  0  0  0  0  0  0
  1  2  1  0
  2  3  1  0
  2  4  2  0
  4  5  1  0
  3  6  2  0
  5  6  1  0
  6  7  1  0
  5  8  1  0
  8  9  1  0
  7 10  1  0
  9 11  1  0
 10 12  1  0
 11 13  2  0
 11 14  1  0
 12 15  1  0
 15 16  2  3
 16 17  1  0
 16 18  1  0
 18 19  1  0
 18 20  2  0
 19 21  2  0
 20 22  1  0
 21 22  1  0
 22 23  1  0
 23 24  1  0
 24 25  1  0
M  END
>  <comRMSD>  (407) 
0.27746

>  <∆∆G>  (407) 
-4.093973

>  <N_constrained_atoms>  (407) 
23.0

>  <LE>  (407) 
-0.163759

>  <ref_pdb>  (407) 
x0104_0

>  <ref_mols>  (407) 
x0628_0_A_α,x0592_0_A_α

>  <%Rank>  (407) 
6.966369

>  <generation_date>  (407) 
nan

>  <method>  (407) 
nan

>  <submitter_email>  (407) 
nan

>  <original SMILES>  (407) 
Cc1nc(CCCN=C(N)c2cnn(CCO)c2)n(CCC(=O)O)n1

>  <ref_url>  (407) 
nan

>  <submitter_name>  (407) 
nan

>  <submitter_institution>  (407) 
nan

$$$$
5cb5_G_0_G_β-6woj_D_0_D_α
     RDKit          3D

 17 17  0  0  0  0  0  0  0  0999 V2000
   -1.7330   21.3540   -8.6250 O   0  0  0  0  0  0  0  0  0  0  0  0
   -0.7670   20.2820   -7.8830 P   0  0  2  0  0  0  0  0  0  0  0  0
   -1.4300   19.9100   -6.5050 O   0  0  0  0  0  0  0  0  0  0  0  0
   -3.0900   21.7460   -8.3030 C   0  0  1  0  0  0  0  0  0  0  0  0
    0.6540   20.7200   -7.7130 O   0  0  0  0  0  0  0  0  0  0  0  0
   -0.8270   18.8960   -8.6820 O   0  0  0  0  0  0  0  0  0  0  0  0
   -3.6640   21.0430   -7.1980 O   0  0  0  0  0  0  0  0  0  0  0  0
   -3.3360   23.2620   -7.9770 C   0  0  1  0  0  0  0  0  0  0  0  0
   -1.7070   18.4050   -6.1020 P   0  0  0  0  0  0  0  0  0  0  0  0
   -4.0790   23.9310   -9.0140 O   0  0  0  0  0  0  0  0  0  0  0  0
   -4.7790   21.8500   -6.8310 C   0  0  2  0  0  0  0  0  0  0  0  0
   -4.1520   23.2180   -6.6700 C   0  0  2  0  0  0  0  0  0  0  0  0
   -0.3110   17.6590   -6.0280 O   0  0  0  0  0  0  0  0  0  0  0  0
   -2.7610   17.6650   -6.8250 O   0  0  0  0  0  0  0  0  0  0  0  0
   -1.9580   18.6120   -4.5590 O   0  0  0  0  0  0  0  0  0  0  0  0
   -5.3240   21.4280   -5.5910 O   0  0  0  0  0  0  0  0  0  0  0  0
   -5.1830   24.2190   -6.5690 O   0  0  0  0  0  0  0  0  0  0  0  0
  1  2  1  0
  2  3  1  0
  4  1  1  1
  2  5  2  0
  2  6  1  6
  4  7  1  0
  4  8  1  0
  3  9  1  0
  8 10  1  6
  7 11  1  0
  8 12  1  0
 11 12  1  0
  9 13  1  0
  9 14  2  0
  9 15  1  0
 11 16  1  1
 12 17  1  6
M  END
>  <comRMSD>  (408) 
0.679501

>  <∆∆G>  (408) 
-12.905077

>  <N_constrained_atoms>  (408) 
17.0

>  <LE>  (408) 
-0.759122

>  <ref_pdb>  (408) 
x0104_0

>  <ref_mols>  (408) 


>  <%Rank>  (408) 
6.983528

>  <generation_date>  (408) 
nan

>  <method>  (408) 
nan

>  <submitter_email>  (408) 
nan

>  <original SMILES>  (408) 
O=P(O)(O)OP(=O)(O)OC1OC(O)C(O)C1O

>  <ref_url>  (408) 
nan

>  <submitter_name>  (408) 
nan

>  <submitter_institution>  (408) 
nan

$$$$
5cb5_Q_0_Q_γ-3Q6Z_0_A_β
     RDKit          3D

 16 16  0  0  0  0  0  0  0  0999 V2000
   -0.8080   13.1460   -4.7990 O   0  0  0  0  0  0  0  0  0  0  0  0
   -0.8840   14.3980   -4.1950 C   0  0  1  0  0  0  0  0  0  0  0  0
   -0.0570   15.0450   -3.1010 C   0  0  0  0  0  0  0  0  0  0  0  0
    0.3120   14.8050   -5.0720 C   0  0  2  0  0  0  0  0  0  0  0  0
    1.3680   13.9340   -4.7930 O   0  0  0  0  0  0  0  0  0  0  0  0
    0.0160   16.3620   -3.5030 O   0  0  0  0  0  0  0  0  0  0  0  0
    0.6580   16.2150   -4.6910 C   0  0  2  0  0  0  0  0  0  0  0  0
    0.2810   17.3780   -5.6330 C   0  0  0  0  0  0  0  0  0  0  0  0
   -1.3840   17.9350   -5.7100 P   0  0  0  0  0  0  0  0  0  0  0  0
   -1.1350   19.3030   -6.3690 O   0  0  0  0  0  0  0  0  0  0  0  0
   -1.9220   18.9520   -4.4820 O   0  0  0  0  0  0  0  0  0  0  0  0
   -2.4870   17.4920   -6.7990 O   0  0  0  0  0  0  0  0  0  0  0  0
   -0.1800   19.6180   -7.5990 P   0  0  0  0  0  0  0  0  0  0  0  0
   -1.3360   20.2280   -8.3910 O   0  0  0  0  0  0  0  0  0  0  0  0
    0.0580   18.5230   -8.8250 O   0  0  0  0  0  0  0  0  0  0  0  0
    0.7090   21.0190   -7.6320 O   0  0  0  0  0  0  0  0  0  0  0  0
  2  1  1  1
  2  3  1  0
  2  4  1  0
  4  5  1  1
  3  6  1  0
  4  7  1  0
  6  7  1  0
  7  8  1  6
  8  9  1  0
  9 10  1  0
  9 11  1  0
  9 12  1  0
 10 13  1  0
 13 14  1  0
 13 15  1  0
 13 16  1  0
M  CHG  2  11  -1  15  -1
M  END
>  <comRMSD>  (409) 
0.548366

>  <∆∆G>  (409) 
-8.670113

>  <N_constrained_atoms>  (409) 
16.0

>  <LE>  (409) 
-0.541882

>  <ref_pdb>  (409) 
x0104_0

>  <ref_mols>  (409) 


>  <%Rank>  (409) 
7.000686

>  <generation_date>  (409) 
nan

>  <method>  (409) 
nan

>  <submitter_email>  (409) 
nan

>  <original SMILES>  (409) 
[O-][PH](O)(O)O[PH]([O-])(O)CC1OCC(O)C1O

>  <ref_url>  (409) 
nan

>  <submitter_name>  (409) 
nan

>  <submitter_institution>  (409) 
nan

$$$$
x0685_1_A_α-x0631_0_A_α
     RDKit          3D

 22 23  0  0  0  0  0  0  0  0999 V2000
   -1.3750   11.0600   -5.1770 N   0  0  0  0  0  0  0  0  0  0  0  0
   -1.1320   12.4970   -4.9740 C   0  0  0  0  0  0  0  0  0  0  0  0
    0.2570   12.8320   -4.4120 C   0  0  0  0  0  0  0  0  0  0  0  0
   -0.5930   10.4500   -6.2620 C   0  0  1  0  0  0  0  0  0  0  0  0
   -0.6840    8.9090   -6.2620 C   0  0  0  0  0  0  0  0  0  0  0  0
   -1.0030   10.9940   -7.6550 C   0  0  0  0  0  0  0  0  0  0  0  0
    0.7970   12.1050   -2.8460 S   0  0  0  0  0  0  0  0  0  0  0  0
   -0.0510    8.2140   -7.4730 C   0  0  0  0  0  0  0  0  0  0  0  0
   -0.1460   10.3350   -8.7710 C   0  0  2  0  0  0  0  0  0  0  0  0
    2.3860   12.2330   -2.9440 O   0  0  0  0  0  0  0  0  0  0  0  0
    0.3410   10.5660   -2.7060 O   0  0  0  0  0  0  0  0  0  0  0  0
    0.2990   12.9510   -1.5790 O   0  0  0  0  0  0  0  0  0  0  0  0
   -0.1970   10.9790  -10.1780 C   0  0  0  0  0  0  0  0  0  0  0  0
   -0.4170    8.8400   -8.8110 C   0  0  0  0  0  0  0  0  0  0  0  0
    0.4620   10.1120  -11.1770 N   0  0  0  0  0  0  0  0  0  0  0  0
    1.9090   10.1510  -11.2790 C   0  0  1  0  0  0  0  0  0  0  0  0
    2.4960    8.9730  -10.7350 O   0  0  0  0  0  0  0  0  0  0  0  0
    2.3720   10.2680  -12.7630 C   0  0  2  0  0  0  0  0  0  0  0  0
    3.6990    9.7300  -12.9680 O   0  0  0  0  0  0  0  0  0  0  0  0
    2.4360   11.6840  -13.3200 C   0  0  0  0  0  0  0  0  0  0  0  0
    4.1700   10.2680  -14.2080 C   0  0  0  0  0  0  0  0  0  0  0  0
    3.4990   11.6160  -14.4000 C   0  0  0  0  0  0  0  0  0  0  0  0
  1  2  1  0
  2  3  1  0
  4  1  1  1
  4  5  1  0
  4  6  1  0
  3  7  1  0
  5  8  1  0
  6  9  1  0
  7 10  1  0
  7 11  1  0
  7 12  1  0
  9 13  1  6
  8 14  1  0
  9 14  1  0
 13 15  1  0
 15 16  1  0
 16 17  1  6
 16 18  1  0
 18 19  1  0
 18 20  1  1
 19 21  1  0
 20 22  1  0
 21 22  1  0
M  END
>  <comRMSD>  (410) 
0.427784

>  <∆∆G>  (410) 
-7.370362

>  <N_constrained_atoms>  (410) 
21.0

>  <LE>  (410) 
-0.335016

>  <ref_pdb>  (410) 
x0104_0

>  <ref_mols>  (410) 
x0685_1_A_α,x0631_0_A_α

>  <%Rank>  (410) 
7.017845

>  <generation_date>  (410) 
nan

>  <method>  (410) 
nan

>  <submitter_email>  (410) 
nan

>  <original SMILES>  (410) 
OC(NCC1CCCC(NCCS(O)(O)O)C1)C1CCCO1

>  <ref_url>  (410) 
nan

>  <submitter_name>  (410) 
nan

>  <submitter_institution>  (410) 
nan

$$$$
x0727_0_A_α-x0805_0_A_α
     RDKit          3D

 22 23  0  0  0  0  0  0  0  0999 V2000
    0.0820   11.5660   -5.5610 N   0  0  0  0  0  0  0  0  0  0  0  0
    0.8550   12.4100   -4.6370 C   0  0  1  0  0  0  0  0  0  0  0  0
    0.3700   13.8690   -4.5940 C   0  0  0  0  0  0  0  0  0  0  0  0
    0.6730   11.1910   -6.7440 C   0  0  0  0  0  0  0  0  0  0  0  0
    1.6510   11.7590   -7.1550 O   0  0  0  0  0  0  0  0  0  0  0  0
    0.7330   11.8250   -3.2350 C   0  0  0  0  0  0  0  0  0  0  0  0
    0.0390   10.0060   -7.4760 C   0  0  0  0  0  0  0  0  0  0  0  0
    0.1390   10.8000   -2.9290 O   0  0  0  0  0  0  0  0  0  0  0  0
    1.3720   12.5630   -2.3070 O   0  0  0  0  0  0  0  0  0  0  0  0
   -1.1350   14.0900   -4.8310 C   0  0  0  0  0  0  0  0  0  0  0  0
   -1.2630   10.3900   -8.1800 C   0  0  0  0  0  0  0  0  0  0  0  0
   -0.3180    8.8550   -6.5180 C   0  0  0  0  0  0  0  0  0  0  0  0
   -2.1710    9.1740   -8.0570 C   0  0  0  0  0  0  0  0  0  0  0  0
   -1.7820    8.5100   -6.7470 C   0  0  0  0  0  0  0  0  0  0  0  0
   -2.0800   13.9590   -3.6410 C   0  0  0  0  0  0  0  0  0  0  0  0
   -3.1370   13.0480   -3.7250 C   0  0  0  0  0  0  0  0  0  0  0  0
   -1.9520   14.7210   -2.4560 C   0  0  0  0  0  0  0  0  0  0  0  0
   -4.0410   12.8960   -2.6780 C   0  0  0  0  0  0  0  0  0  0  0  0
   -2.8660   14.5720   -1.3970 C   0  0  0  0  0  0  0  0  0  0  0  0
   -2.8410   15.2600   -0.2080 O   0  0  0  0  0  0  0  0  0  0  0  0
   -3.9080   13.6570   -1.5180 C   0  0  0  0  0  0  0  0  0  0  0  0
   -4.0920   15.5390    0.4280 C   0  0  0  0  0  0  0  0  0  0  0  0
  1  2  1  0
  2  3  1  1
  1  4  1  0
  4  5  2  0
  2  6  1  0
  4  7  1  0
  6  8  2  0
  6  9  1  0
  3 10  1  0
  7 11  1  0
  7 12  1  0
 11 13  1  0
 12 14  1  0
 13 14  1  0
 10 15  1  0
 15 16  2  0
 15 17  1  0
 16 18  1  0
 17 19  2  0
 19 20  1  0
 18 21  2  0
 19 21  1  0
 20 22  1  0
M  END
>  <comRMSD>  (411) 
0.345306

>  <∆∆G>  (411) 
-3.72771

>  <N_constrained_atoms>  (411) 
21.0

>  <LE>  (411) 
-0.169441

>  <ref_pdb>  (411) 
x0104_0

>  <ref_mols>  (411) 
x0727_0_A_α,x0805_0_A_α

>  <%Rank>  (411) 
7.035003

>  <generation_date>  (411) 
nan

>  <method>  (411) 
nan

>  <submitter_email>  (411) 
nan

>  <original SMILES>  (411) 
COc1cccc(CC[C@H](NC(=O)C2CCCC2)C(=O)O)c1

>  <ref_url>  (411) 
nan

>  <submitter_name>  (411) 
nan

>  <submitter_institution>  (411) 
nan

$$$$
x0844_0_A_α-x0628_0_A_α
     RDKit          3D

 22 23  0  0  0  0  0  0  0  0999 V2000
   -7.5630   14.8090   -0.1290 O   0  0  0  0  0  0  0  0  0  0  0  0
   -6.3380   14.9360   -0.1060 C   0  0  0  0  0  0  0  0  0  0  0  0
   -5.6420   14.8630    1.0760 N   0  0  0  0  0  0  0  0  0  0  0  0
   -5.5180   15.1820   -1.3510 C   0  0  0  0  0  0  0  0  0  0  0  0
   -4.3170   15.1610    1.2040 C   0  0  0  0  0  0  0  0  0  0  0  0
   -4.0750   14.7120   -1.1980 C   0  0  1  0  0  0  0  0  0  0  0  0
   -3.2040   15.2180   -2.2280 O   0  0  0  0  0  0  0  0  0  0  0  0
   -3.5210   15.0990    0.1370 C   0  0  0  0  0  0  0  0  0  0  0  0
   -3.4730   14.6860   -3.5290 C   0  0  0  0  0  0  0  0  0  0  0  0
   -2.2320   13.9820   -4.0900 C   0  0  0  0  0  0  0  0  0  0  0  0
   -2.2910   12.4540   -3.9250 C   0  0  0  0  0  0  0  0  0  0  0  0
   -1.5180   11.7030   -4.9720 C   0  0  0  0  0  0  0  0  0  0  0  0
   -1.8970   10.5710   -5.5420 N   0  0  0  0  0  0  0  0  0  0  0  0
   -0.3040   12.0650   -5.5100 N   0  0  0  0  0  0  0  0  0  0  0  0
    0.5390   13.2120   -5.2290 C   0  0  0  0  0  0  0  0  0  0  0  0
   -0.8820   10.2790   -6.4120 C   0  0  0  0  0  0  0  0  0  0  0  0
    0.1100   11.1710   -6.4270 N   0  0  0  0  0  0  0  0  0  0  0  0
   -0.8820    9.0770   -7.2680 C   0  0  0  0  0  0  0  0  0  0  0  0
    1.6530   12.9010   -4.2380 C   0  0  0  0  0  0  0  0  0  0  0  0
    1.1170   12.2190   -3.0110 C   0  0  0  0  0  0  0  0  0  0  0  0
    0.5920   11.1220   -2.9320 O   0  0  0  0  0  0  0  0  0  0  0  0
    1.2730   12.9700   -1.9080 O   0  0  0  0  0  0  0  0  0  0  0  0
  1  2  2  0
  2  3  1  0
  2  4  1  0
  3  5  1  0
  4  6  1  0
  6  7  1  6
  5  8  2  0
  6  8  1  0
  7  9  1  0
  9 10  1  0
 10 11  1  0
 11 12  1  0
 12 13  2  0
 12 14  1  0
 14 15  1  0
 13 16  1  0
 14 17  1  0
 16 17  2  0
 16 18  1  0
 15 19  1  0
 19 20  1  0
 20 21  2  0
 20 22  1  0
M  END
>  <comRMSD>  (412) 
0.191553

>  <∆∆G>  (412) 
-3.516633

>  <N_constrained_atoms>  (412) 
20.0

>  <LE>  (412) 
-0.159847

>  <ref_pdb>  (412) 
x0104_0

>  <ref_mols>  (412) 
x0844_0_A_α,x0628_0_A_α

>  <%Rank>  (412) 
7.052162

>  <generation_date>  (412) 
nan

>  <method>  (412) 
nan

>  <submitter_email>  (412) 
nan

>  <original SMILES>  (412) 
Cc1nc(CCCOC2C=CNC(=O)C2)n(CCC(=O)O)n1

>  <ref_url>  (412) 
nan

>  <submitter_name>  (412) 
nan

>  <submitter_institution>  (412) 
nan

$$$$
x0962_2_B_α-x0711_0_A_α
     RDKit          3D

 21 22  0  0  0  0  0  0  0  0999 V2000
  -10.3540   16.2150    0.6330 N   0  0  0  0  0  0  0  0  0  0  0  0
   -9.6830   15.9230    1.5340 C   0  0  0  0  0  0  0  0  0  0  0  0
   -8.9000   15.5950    2.6640 C   0  0  0  0  0  0  0  0  0  0  0  0
   -9.3100   15.9160    3.9330 N   0  0  0  0  0  0  0  0  0  0  0  0
   -7.6650   14.9600    2.8150 C   0  0  0  0  0  0  0  0  0  0  0  0
   -6.7460   14.4270    1.8820 N   0  0  0  0  0  0  0  0  0  0  0  0
   -8.3570   15.4770    4.7930 C   0  0  0  0  0  0  0  0  0  0  0  0
   -7.3850   14.9080    4.1500 N   0  0  0  0  0  0  0  0  0  0  0  0
   -6.7160   14.5990    0.4860 C   0  0  0  0  0  0  0  0  0  0  0  0
   -7.6880   14.6800   -0.2480 O   0  0  0  0  0  0  0  0  0  0  0  0
   -5.3600   14.6930   -0.2130 C   0  0  0  0  0  0  0  0  0  0  0  0
   -5.3500   15.0400   -1.5790 C   0  0  0  0  0  0  0  0  0  0  0  0
   -4.1230   14.4530    0.4150 C   0  0  0  0  0  0  0  0  0  0  0  0
   -4.1440   15.1470   -2.3000 C   0  0  0  0  0  0  0  0  0  0  0  0
   -2.9140   14.5600   -0.3120 C   0  0  0  0  0  0  0  0  0  0  0  0
   -2.9220   14.9080   -1.6680 C   0  0  0  0  0  0  0  0  0  0  0  0
   -1.7090   15.0490   -2.4360 N   0  0  0  0  0  0  0  0  0  0  0  0
   -0.7000   13.8360   -3.0120 S   0  0  0  0  0  0  0  0  0  0  0  0
   -1.8100   12.7620   -3.8940 C   0  0  0  0  0  0  0  0  0  0  0  0
    0.2140   14.4260   -3.9670 O   0  0  0  0  0  0  0  0  0  0  0  0
   -0.1960   13.1360   -1.8480 O   0  0  0  0  0  0  0  0  0  0  0  0
  1  2  3  0
  2  3  1  0
  3  4  1  0
  3  5  2  0
  5  6  1  0
  4  7  1  0
  5  8  1  0
  7  8  2  0
  6  9  1  0
  9 10  2  0
  9 11  1  0
 11 12  2  0
 11 13  1  0
 12 14  1  0
 13 15  2  0
 14 16  2  0
 15 16  1  0
 16 17  1  0
 18 17  1  0
 18 19  1  0
 18 20  2  0
 18 21  2  0
M  END
>  <comRMSD>  (413) 
0.466372

>  <∆∆G>  (413) 
-3.627613

>  <N_constrained_atoms>  (413) 
21.0

>  <LE>  (413) 
-0.172743

>  <ref_pdb>  (413) 
x0104_0

>  <ref_mols>  (413) 
x0962_2_B_α,x0711_0_A_α

>  <%Rank>  (413) 
7.069321

>  <generation_date>  (413) 
nan

>  <method>  (413) 
nan

>  <submitter_email>  (413) 
nan

>  <original SMILES>  (413) 
CS(=O)(=O)Nc1ccc(C(=O)Nc2nc[nH]c2C#N)cc1

>  <ref_url>  (413) 
nan

>  <submitter_name>  (413) 
nan

>  <submitter_institution>  (413) 
nan

$$$$
6mea_B_0_B_α-6fx_7_0A_β
     RDKit          3D

 17 17  0  0  0  0  0  0  0  0999 V2000
   -1.7980   21.6690   -7.3960 C   0  0  0  0  0  0  0  0  0  0  0  0
   -0.7190   20.3080   -7.8800 P   0  0  1  0  0  0  0  0  0  0  0  0
   -0.5130   19.3050   -6.6780 O   0  0  0  0  0  0  0  0  0  0  0  0
   -3.0740   22.0170   -8.1830 C   0  0  1  0  0  0  0  0  0  0  0  0
   -0.9570   19.5560   -9.1230 O   0  0  0  0  0  0  0  0  0  0  0  0
    0.7260   21.0070   -7.8910 O   0  0  0  0  0  0  0  0  0  0  0  0
   -4.1740   21.2740   -7.6650 O   0  0  0  0  0  0  0  0  0  0  0  0
   -3.5720   23.4650   -8.0080 C   0  0  1  0  0  0  0  0  0  0  0  0
   -4.4580   23.8890   -9.0480 O   0  0  0  0  0  0  0  0  0  0  0  0
   -1.6620   18.4990   -5.9530 P   0  0  0  0  0  0  0  0  0  0  0  0
   -4.5820   21.9250   -6.4610 C   0  0  1  0  0  0  0  0  0  0  0  0
   -4.2950   23.4270   -6.6500 C   0  0  2  0  0  0  0  0  0  0  0  0
   -5.9410   21.6570   -6.1750 O   0  0  0  0  0  0  0  0  0  0  0  0
   -5.5450   24.1500   -6.6890 O   0  0  0  0  0  0  0  0  0  0  0  0
   -1.0250   17.0790   -5.6270 O   0  0  0  0  0  0  0  0  0  0  0  0
   -2.2630   19.1910   -4.7980 O   0  0  0  0  0  0  0  0  0  0  0  0
   -2.7020   18.0890   -7.0770 O   0  0  0  0  0  0  0  0  0  0  0  0
  1  2  1  0
  2  3  1  0
  4  1  1  1
  2  5  2  0
  2  6  1  6
  4  7  1  0
  4  8  1  0
  8  9  1  6
  3 10  1  0
  7 11  1  0
  8 12  1  0
 11 12  1  0
 11 13  1  6
 12 14  1  6
 10 15  1  0
 10 16  2  0
 10 17  1  0
M  END
>  <comRMSD>  (414) 
0.729637

>  <∆∆G>  (414) 
-14.568458

>  <N_constrained_atoms>  (414) 
17.0

>  <LE>  (414) 
-0.856968

>  <ref_pdb>  (414) 
x0104_0

>  <ref_mols>  (414) 


>  <%Rank>  (414) 
7.086479

>  <generation_date>  (414) 
nan

>  <method>  (414) 
nan

>  <submitter_email>  (414) 
nan

>  <original SMILES>  (414) 
O=P(O)(O)OP(=O)(O)CC1OC(O)C(O)C1O

>  <ref_url>  (414) 
nan

>  <submitter_name>  (414) 
nan

>  <submitter_institution>  (414) 
nan

$$$$
x0128_0_A_α-x0855_0_A_α
     RDKit          3D

 30 32  0  0  0  0  0  0  0  0999 V2000
   -6.6550   14.5660    2.4760 N   0  0  0  0  0  0  0  0  0  0  0  0
   -7.7280   15.1620    3.0830 C   0  0  0  0  0  0  0  0  0  0  0  0
   -8.7840   15.4670    2.5270 O   0  0  0  0  0  0  0  0  0  0  0  0
   -6.1280   14.8000    1.1870 C   0  0  0  0  0  0  0  0  0  0  0  0
   -7.5960   15.4460    4.4290 N   0  0  0  0  0  0  0  0  0  0  0  0
   -6.8790   14.7390    0.0170 C   0  0  0  0  0  0  0  0  0  0  0  0
   -4.7600   15.1160    1.1040 C   0  0  0  0  0  0  0  0  0  0  0  0
   -6.2770   14.9920   -1.2200 C   0  0  0  0  0  0  0  0  0  0  0  0
   -4.1430   15.3700   -0.1330 C   0  0  0  0  0  0  0  0  0  0  0  0
   -8.4440   16.1840    5.2830 C   0  0  0  0  0  0  0  0  0  0  0  0
   -2.6700   15.7080   -0.1870 C   0  0  0  0  0  0  0  0  0  0  0  0
   -4.9180   15.3050   -1.2930 C   0  0  0  0  0  0  0  0  0  0  0  0
   -9.1640   17.3130    4.9050 C   0  0  0  0  0  0  0  0  0  0  0  0
   -8.5810   15.7640    6.6060 C   0  0  0  0  0  0  0  0  0  0  0  0
   -1.7580   14.4790   -0.2760 C   0  0  0  0  0  0  0  0  0  0  0  0
   -9.9790   18.0180    5.7270 N   0  0  0  0  0  0  0  0  0  0  0  0
   -9.4120   16.4710    7.4790 C   0  0  0  0  0  0  0  0  0  0  0  0
   -0.5890   14.6370   -1.2690 C   0  0  0  0  0  0  0  0  0  0  0  0
  -10.0830   17.5830    6.9950 C   0  0  0  0  0  0  0  0  0  0  0  0
    0.4290   13.4950   -1.2120 C   0  0  0  0  0  0  0  0  0  0  0  0
    1.1430   13.3610   -2.4530 O   0  0  0  0  0  0  0  0  0  0  0  0
    0.8370   12.2640   -3.1910 C   0  0  0  0  0  0  0  0  0  0  0  0
    0.7360   11.1320   -2.7240 O   0  0  0  0  0  0  0  0  0  0  0  0
    0.6060   12.5500   -4.6490 C   0  0  0  0  0  0  0  0  0  0  0  0
   -0.4360   11.6950   -5.1650 N   0  0  0  0  0  0  0  0  0  0  0  0
   -0.3120   10.7400   -6.1340 C   0  0  0  0  0  0  0  0  0  0  0  0
   -1.6910   11.8020   -4.6670 N   0  0  0  0  0  0  0  0  0  0  0  0
   -1.5560   10.1930   -6.2560 C   0  0  0  0  0  0  0  0  0  0  0  0
   -2.3710   10.8720   -5.3460 C   0  0  0  0  0  0  0  0  0  0  0  0
   -2.1020    8.8200   -7.3910 Br  0  0  0  0  0  0  0  0  0  0  0  0
  1  2  1  0
  2  3  2  0
  1  4  1  0
  2  5  1  0
  4  6  2  0
  4  7  1  0
  6  8  1  0
  7  9  2  0
  5 10  1  0
  9 11  1  0
  8 12  2  0
  9 12  1  0
 10 13  2  0
 10 14  1  0
 11 15  1  0
 13 16  1  0
 14 17  2  0
 15 18  1  0
 16 19  2  0
 17 19  1  0
 18 20  1  0
 20 21  1  0
 21 22  1  0
 22 23  2  0
 22 24  1  0
 24 25  1  0
 25 26  1  0
 25 27  1  0
 26 28  2  0
 27 29  2  0
 28 29  1  0
 28 30  1  0
M  END
>  <comRMSD>  (415) 
0.247349

>  <∆∆G>  (415) 
-10.303964

>  <N_constrained_atoms>  (415) 
26.0

>  <LE>  (415) 
-0.343465

>  <ref_pdb>  (415) 
x0104_0

>  <ref_mols>  (415) 
x0128_0_A_α,x0855_0_A_α

>  <%Rank>  (415) 
7.103638

>  <generation_date>  (415) 
nan

>  <method>  (415) 
nan

>  <submitter_email>  (415) 
nan

>  <original SMILES>  (415) 
O=C(Nc1cccnc1)Nc1cccc(CCCCOC(=O)Cn2cc(Br)cn2)c1

>  <ref_url>  (415) 
nan

>  <submitter_name>  (415) 
nan

>  <submitter_institution>  (415) 
nan

$$$$
x0253_0_A_α-x0626_0_A_α
     RDKit          3D

 27 28  0  0  0  0  0  0  0  0999 V2000
    0.3860   11.8310   -5.4380 N   0  0  0  0  0  0  0  0  0  0  0  0
    1.0880   11.5780   -6.5730 C   0  0  0  0  0  0  0  0  0  0  0  0
    2.1890   12.0550   -6.7200 O   0  0  0  0  0  0  0  0  0  0  0  0
    0.7270   13.0560   -4.7740 C   0  0  0  0  0  0  0  0  0  0  0  0
    0.9310   12.9400   -3.2810 C   0  0  0  0  0  0  0  0  0  0  0  0
    0.4580   10.6820   -7.5810 C   0  0  0  0  0  0  0  0  0  0  0  0
    1.4050   13.9810   -2.7010 N   0  0  0  0  0  0  0  0  0  0  0  0
    0.5730   11.7510   -2.7190 O   0  0  0  0  0  0  0  0  0  0  0  0
   -0.5210    9.7630   -7.1910 C   0  0  0  0  0  0  0  0  0  0  0  0
    0.8390   10.7520   -8.9250 C   0  0  0  0  0  0  0  0  0  0  0  0
    1.6730   14.2150   -1.3120 C   0  0  0  0  0  0  0  0  0  0  0  0
   -1.1170    8.9230   -8.1350 C   0  0  0  0  0  0  0  0  0  0  0  0
    0.2510    9.9170   -9.8680 C   0  0  0  0  0  0  0  0  0  0  0  0
   -2.1690    7.9430   -7.7060 C   0  0  0  0  0  0  0  0  0  0  0  0
    0.4480   13.7800   -0.5440 C   0  0  0  0  0  0  0  0  0  0  0  0
   -0.7250    9.0050   -9.4760 C   0  0  0  0  0  0  0  0  0  0  0  0
   -0.0890   14.5840    0.6440 C   0  0  0  0  0  0  0  0  0  0  0  0
   -1.5440   14.7180    0.3960 C   0  0  0  0  0  0  0  0  0  0  0  0
   -2.4730   14.7140    1.4190 N   0  0  0  0  0  0  0  0  0  0  0  0
   -2.0650   14.8430   -0.8780 C   0  0  0  0  0  0  0  0  0  0  0  0
   -3.6720   14.8410    0.8700 C   0  0  0  0  0  0  0  0  0  0  0  0
   -3.7590   14.9690   -0.8280 S   0  0  0  0  0  0  0  0  0  0  0  0
   -4.8950   14.8830    1.4520 N   0  0  0  0  0  0  0  0  0  0  0  0
   -6.0810   14.6950    0.8090 C   0  0  0  0  0  0  0  0  0  0  0  0
   -6.1250   14.8240   -0.4200 O   0  0  0  0  0  0  0  0  0  0  0  0
   -7.3160   14.3410    1.6160 C   0  0  0  0  0  0  0  0  0  0  0  0
   -8.5950   14.6720    0.8650 C   0  0  0  0  0  0  0  0  0  0  0  0
  1  2  1  0
  2  3  2  0
  1  4  1  0
  4  5  1  0
  2  6  1  0
  5  7  2  3
  5  8  1  0
  6  9  2  0
  6 10  1  0
  7 11  1  0
  9 12  1  0
 10 13  2  0
 12 14  1  0
 11 15  1  0
 12 16  2  0
 13 16  1  0
 15 17  1  0
 17 18  1  0
 18 19  1  0
 18 20  2  0
 19 21  2  0
 20 22  1  0
 21 22  1  0
 21 23  1  0
 23 24  1  0
 24 25  2  0
 24 26  1  0
 26 27  1  0
M  END
>  <comRMSD>  (416) 
0.439049

>  <∆∆G>  (416) 
-10.438627

>  <N_constrained_atoms>  (416) 
25.0

>  <LE>  (416) 
-0.386616

>  <ref_pdb>  (416) 
x0104_0

>  <ref_mols>  (416) 
x0253_0_A_α,x0626_0_A_α

>  <%Rank>  (416) 
7.120796

>  <generation_date>  (416) 
nan

>  <method>  (416) 
nan

>  <submitter_email>  (416) 
nan

>  <original SMILES>  (416) 
CCC(=O)Nc1nc(CCCN=C(O)CNC(=O)c2cccc(C)c2)cs1

>  <ref_url>  (416) 
nan

>  <submitter_name>  (416) 
nan

>  <submitter_institution>  (416) 
nan

$$$$
x0849_0_A_α-x0253_0_A_α
     RDKit          3D

 26 28  0  0  0  0  0  0  0  0999 V2000
   -3.8330   15.1850   -2.7930 Br  0  0  0  0  0  0  0  0  0  0  0  0
   -3.6560   15.1910   -0.9040 C   0  0  0  0  0  0  0  0  0  0  0  0
   -2.4610   14.8170   -0.2970 C   0  0  0  0  0  0  0  0  0  0  0  0
   -4.7410   15.5650   -0.1380 C   0  0  0  0  0  0  0  0  0  0  0  0
   -2.3990   14.8380    1.0980 C   0  0  0  0  0  0  0  0  0  0  0  0
   -4.5610   15.5390    1.2250 C   0  0  0  0  0  0  0  0  0  0  0  0
   -1.3270   14.4210   -1.0010 C   0  0  0  0  0  0  0  0  0  0  0  0
   -3.4270   15.1900    1.8240 N   0  0  0  0  0  0  0  0  0  0  0  0
   -1.3150   14.5020    1.7540 N   0  0  0  0  0  0  0  0  0  0  0  0
   -0.1950   14.0530   -0.3330 C   0  0  0  0  0  0  0  0  0  0  0  0
    0.9950   13.5980   -1.1090 C   0  0  0  0  0  0  0  0  0  0  0  0
   -0.2500   14.1160    1.0560 C   0  0  0  0  0  0  0  0  0  0  0  0
    0.9260   13.8080   -2.5160 N   0  0  0  0  0  0  0  0  0  0  0  0
    0.7420   12.8190   -3.3050 C   0  0  0  0  0  0  0  0  0  0  0  0
    0.5840   11.5200   -2.9510 O   0  0  0  0  0  0  0  0  0  0  0  0
    0.6860   13.0880   -4.7890 C   0  0  0  0  0  0  0  0  0  0  0  0
    0.3110   11.8970   -5.5040 N   0  0  0  0  0  0  0  0  0  0  0  0
    1.0760   11.6100   -6.5950 C   0  0  0  0  0  0  0  0  0  0  0  0
    2.1930   12.0630   -6.6890 O   0  0  0  0  0  0  0  0  0  0  0  0
    0.4670   10.6970   -7.6070 C   0  0  0  0  0  0  0  0  0  0  0  0
   -0.5040    9.7760   -7.2180 C   0  0  0  0  0  0  0  0  0  0  0  0
    0.8610   10.7530   -8.9520 C   0  0  0  0  0  0  0  0  0  0  0  0
   -1.0880    8.9140   -8.1550 C   0  0  0  0  0  0  0  0  0  0  0  0
    0.2850    9.8980   -9.8890 C   0  0  0  0  0  0  0  0  0  0  0  0
   -2.1310    7.9320   -7.7240 C   0  0  0  0  0  0  0  0  0  0  0  0
   -0.6850    8.9840   -9.4930 C   0  0  0  0  0  0  0  0  0  0  0  0
  1  2  1  0
  2  3  2  0
  2  4  1  0
  3  5  1  0
  4  6  2  0
  3  7  1  0
  5  8  2  0
  6  8  1  0
  5  9  1  0
  7 10  2  0
 10 11  1  0
  9 12  2  0
 10 12  1  0
 11 13  1  0
 13 14  2  3
 14 15  1  0
 14 16  1  0
 16 17  1  0
 17 18  1  0
 18 19  2  0
 18 20  1  0
 20 21  2  0
 20 22  1  0
 21 23  1  0
 22 24  2  0
 23 25  1  0
 23 26  2  0
 24 26  1  0
M  END
>  <comRMSD>  (417) 
0.475651

>  <∆∆G>  (417) 
-6.72863

>  <N_constrained_atoms>  (417) 
25.0

>  <LE>  (417) 
-0.258793

>  <ref_pdb>  (417) 
x0104_0

>  <ref_mols>  (417) 
x0849_0_A_α,x0253_0_A_α

>  <%Rank>  (417) 
7.137955

>  <generation_date>  (417) 
nan

>  <method>  (417) 
nan

>  <submitter_email>  (417) 
nan

>  <original SMILES>  (417) 
Cc1cccc(C(=O)NCC(O)=NCc2cnc3nccc(Br)c3c2)c1

>  <ref_url>  (417) 
nan

>  <submitter_name>  (417) 
nan

>  <submitter_institution>  (417) 
nan

$$$$
5CB5_0_R_α-6woj_D_0_D_β
     RDKit          3D

 17 17  0  0  0  0  0  0  0  0999 V2000
   -1.9200   21.2770   -7.3880 C   0  0  0  0  0  0  0  0  0  0  0  0
   -0.4710   20.2300   -7.7150 P   0  0  2  0  0  0  0  0  0  0  0  0
   -0.2560   19.2560   -6.4730 O   0  0  0  0  0  0  0  0  0  0  0  0
   -2.9500   21.7700   -8.4310 C   0  0  1  0  0  0  0  0  0  0  0  0
    0.8010   20.9710   -7.9400 O   0  0  0  0  0  0  0  0  0  0  0  0
   -0.7640   19.0650   -8.7740 O   0  0  0  0  0  0  0  0  0  0  0  0
   -4.1940   21.1510   -8.1550 O   0  0  0  0  0  0  0  0  0  0  0  0
   -3.4260   23.2360   -8.2650 C   0  0  1  0  0  0  0  0  0  0  0  0
   -4.3000   23.6850   -9.3140 O   0  0  0  0  0  0  0  0  0  0  0  0
   -1.3420   18.3590   -5.7400 P   0  0  0  0  0  0  0  0  0  0  0  0
   -4.5550   21.6710   -6.8680 C   0  0  1  0  0  0  0  0  0  0  0  0
   -4.1930   23.1620   -6.9260 C   0  0  2  0  0  0  0  0  0  0  0  0
   -5.9140   21.4240   -6.5660 O   0  0  0  0  0  0  0  0  0  0  0  0
   -5.4060   23.9490   -6.9360 O   0  0  0  0  0  0  0  0  0  0  0  0
   -0.6270   16.9500   -5.5420 O   0  0  0  0  0  0  0  0  0  0  0  0
   -1.8710   18.9330   -4.4930 O   0  0  0  0  0  0  0  0  0  0  0  0
   -2.4690   17.9960   -6.8170 O   0  0  0  0  0  0  0  0  0  0  0  0
  1  2  1  0
  2  3  1  0
  4  1  1  1
  2  5  2  0
  2  6  1  6
  4  7  1  0
  4  8  1  0
  8  9  1  6
  3 10  1  0
  7 11  1  0
  8 12  1  0
 11 12  1  0
 11 13  1  6
 12 14  1  6
 10 15  1  0
 10 16  2  0
 10 17  1  0
M  END
>  <comRMSD>  (418) 
0.725336

>  <∆∆G>  (418) 
-14.37776

>  <N_constrained_atoms>  (418) 
17.0

>  <LE>  (418) 
-0.845751

>  <ref_pdb>  (418) 
x0104_0

>  <ref_mols>  (418) 


>  <%Rank>  (418) 
7.155113

>  <generation_date>  (418) 
nan

>  <method>  (418) 
nan

>  <submitter_email>  (418) 
nan

>  <original SMILES>  (418) 
O=P(O)(O)OP(=O)(O)CC1OC(O)C(O)C1O

>  <ref_url>  (418) 
nan

>  <submitter_name>  (418) 
nan

>  <submitter_institution>  (418) 
nan

$$$$
x0299_0_A_α-x0814_0_B_α
     RDKit          3D

 31 33  0  0  0  0  0  0  0  0999 V2000
   14.4650    7.7270   12.7140 N   0  0  0  0  0  0  0  0  0  0  0  0
   15.1820    8.4590   13.5990 C   0  0  0  0  0  0  0  0  0  0  0  0
   16.2860    8.9270   13.3570 O   0  0  0  0  0  0  0  0  0  0  0  0
   14.2170    8.0740   11.3360 C   0  0  1  0  0  0  0  0  0  0  0  0
   14.4510    8.5990   14.9150 C   0  0  0  0  0  0  0  0  0  0  0  0
   14.8470    9.3550   10.7620 C   0  0  0  0  0  0  0  0  0  0  0  0
   14.5250    6.8310   10.5550 C   0  0  0  0  0  0  0  0  0  0  0  0
   15.0460    7.7170   16.0020 C   0  0  0  0  0  0  0  0  0  0  0  0
   14.2880    5.6140   11.1360 N   0  0  0  0  0  0  0  0  0  0  0  0
   15.0230    6.6910    9.3300 N   0  0  0  0  0  0  0  0  0  0  0  0
   14.6930   10.6860   11.5480 C   0  0  2  0  0  0  0  0  0  0  0  0
   16.0350    8.4800   16.8680 C   0  0  0  0  0  0  0  0  0  0  0  0
   15.1070    5.3130    9.1550 C   0  0  0  0  0  0  0  0  0  0  0  0
   14.6450    4.6330   10.2750 C   0  0  0  0  0  0  0  0  0  0  0  0
   13.2350   10.8400   11.8990 C   0  0  0  0  0  0  0  0  0  0  0  0
   15.1340   12.0030   10.8600 C   0  0  0  0  0  0  0  0  0  0  0  0
   14.6040    3.2420   10.3880 C   0  0  0  0  0  0  0  0  0  0  0  0
   15.5670    4.5500    8.0690 C   0  0  0  0  0  0  0  0  0  0  0  0
   13.1550   11.9020   12.8790 N   0  0  0  0  0  0  0  0  0  0  0  0
   14.7790   13.2540   11.6700 C   0  0  2  0  0  0  0  0  0  0  0  0
   15.8720   14.3370   11.7420 C   0  0  0  0  0  0  0  0  0  0  0  0
   11.6520   12.4460   13.2620 S   0  0  0  0  0  0  0  0  0  0  0  0
   15.0620    2.5110    9.2930 C   0  0  0  0  0  0  0  0  0  0  0  0
   15.5370    3.1510    8.1500 C   0  0  0  0  0  0  0  0  0  0  0  0
   14.3440   12.7800   13.0450 C   0  0  1  0  0  0  0  0  0  0  0  0
   14.1420   13.9290   14.0180 C   0  0  0  0  0  0  0  0  0  0  0  0
   11.6960   13.8790   13.0630 O   0  0  0  0  0  0  0  0  0  0  0  0
   17.1580   13.9100   11.5420 N   0  0  0  0  0  0  0  0  0  0  0  0
   10.6450   11.5870   12.6410 O   0  0  0  0  0  0  0  0  0  0  0  0
   15.6740   15.5260   11.9650 O   0  0  0  0  0  0  0  0  0  0  0  0
   11.6850   12.0780   15.0120 C   0  0  0  0  0  0  0  0  0  0  0  0
  1  2  1  0
  2  3  2  0
  1  4  1  0
  2  5  1  0
  4  6  1  6
  4  7  1  0
  5  8  1  0
  7  9  1  0
  7 10  2  0
 11  6  1  6
  8 12  1  0
 10 13  1  0
  9 14  1  0
 13 14  2  0
 11 15  1  0
 11 16  1  0
 14 17  1  0
 13 18  1  0
 15 19  1  0
 16 20  1  0
 20 21  1  1
 19 22  1  0
 17 23  2  0
 18 24  2  0
 23 24  1  0
 19 25  1  0
 20 25  1  0
 25 26  1  1
 22 27  2  0
 21 28  1  0
 22 29  2  0
 21 30  2  0
 22 31  1  0
M  END
>  <comRMSD>  (419) 
0.499057

>  <∆∆G>  (419) 
-4.225329

>  <N_constrained_atoms>  (419) 
30.0

>  <LE>  (419) 
-0.136301

>  <ref_pdb>  (419) 
x0104_0

>  <ref_mols>  (419) 
x0299_0_A_α,x0814_0_B_α

>  <%Rank>  (419) 
7.172272

>  <generation_date>  (419) 
nan

>  <method>  (419) 
nan

>  <submitter_email>  (419) 
nan

>  <original SMILES>  (419) 
CCCC(=O)NC(CC1CC(C(N)=O)C(C)N(S(C)(=O)=O)C1)c1nc2ccccc2[nH]1

>  <ref_url>  (419) 
nan

>  <submitter_name>  (419) 
nan

>  <submitter_institution>  (419) 
nan

$$$$
x0814_0_B_α-x0299_0_A_α
     RDKit          3D

 31 33  0  0  0  0  0  0  0  0999 V2000
   14.0290   14.2270   13.9010 C   0  0  0  0  0  0  0  0  0  0  0  0
   14.3710   12.9440   13.1530 C   0  0  1  0  0  0  0  0  0  0  0  0
   13.2810   11.9560   13.0910 N   0  0  0  0  0  0  0  0  0  0  0  0
   14.7900   13.2640   11.7370 C   0  0  1  0  0  0  0  0  0  0  0  0
   15.9120   14.3120   11.7180 C   0  0  0  0  0  0  0  0  0  0  0  0
   11.6940   12.4100   13.3010 S   0  0  0  0  0  0  0  0  0  0  0  0
   13.5340   10.6740   12.4700 C   0  0  0  0  0  0  0  0  0  0  0  0
   15.1210   11.9730   10.9780 C   0  0  0  0  0  0  0  0  0  0  0  0
   11.6750   13.8350   13.0480 O   0  0  0  0  0  0  0  0  0  0  0  0
   17.1690   13.8390   11.4730 N   0  0  0  0  0  0  0  0  0  0  0  0
   10.7710   11.4900   12.6390 O   0  0  0  0  0  0  0  0  0  0  0  0
   15.7390   15.5150   11.9140 O   0  0  0  0  0  0  0  0  0  0  0  0
   11.6690   12.1180   15.0630 C   0  0  0  0  0  0  0  0  0  0  0  0
   14.0800   10.8070   11.0570 C   0  0  1  0  0  0  0  0  0  0  0  0
   14.5650    9.4050   10.5640 C   0  0  0  0  0  0  0  0  0  0  0  0
   14.7220    8.1570   11.4060 C   0  0  1  0  0  0  0  0  0  0  0  0
   13.9750    8.0560   12.6200 N   0  0  0  0  0  0  0  0  0  0  0  0
   14.7860    6.8530   10.6610 C   0  0  0  0  0  0  0  0  0  0  0  0
   14.7230    8.2370   13.7490 C   0  0  0  0  0  0  0  0  0  0  0  0
   14.4560    5.6670   11.2650 N   0  0  0  0  0  0  0  0  0  0  0  0
   15.1720    6.6620    9.3980 N   0  0  0  0  0  0  0  0  0  0  0  0
   15.9140    8.5400   13.7000 O   0  0  0  0  0  0  0  0  0  0  0  0
   13.9750    8.0310   15.0390 C   0  0  0  0  0  0  0  0  0  0  0  0
   15.1080    5.2900    9.2190 C   0  0  0  0  0  0  0  0  0  0  0  0
   14.6560    4.6570   10.3680 C   0  0  0  0  0  0  0  0  0  0  0  0
   14.9100    7.4960   16.1160 C   0  0  0  0  0  0  0  0  0  0  0  0
   14.4870    3.2750   10.4780 C   0  0  0  0  0  0  0  0  0  0  0  0
   15.4220    4.4940    8.1060 C   0  0  0  0  0  0  0  0  0  0  0  0
   15.8600    8.5710   16.6160 C   0  0  0  0  0  0  0  0  0  0  0  0
   14.8020    2.5100    9.3530 C   0  0  0  0  0  0  0  0  0  0  0  0
   15.2640    3.1060    8.1850 C   0  0  0  0  0  0  0  0  0  0  0  0
  2  1  1  6
  2  3  1  0
  2  4  1  0
  4  5  1  1
  3  6  1  0
  3  7  1  0
  4  8  1  0
  6  9  2  0
  5 10  1  0
  6 11  2  0
  5 12  2  0
  6 13  1  0
  7 14  1  0
  8 14  1  0
 14 15  1  1
 16 15  1  6
 16 17  1  0
 16 18  1  0
 17 19  1  0
 18 20  1  0
 18 21  2  0
 19 22  2  0
 19 23  1  0
 21 24  1  0
 20 25  1  0
 24 25  2  0
 23 26  1  0
 25 27  1  0
 24 28  1  0
 26 29  1  0
 27 30  2  0
 28 31  2  0
 30 31  1  0
M  END
>  <comRMSD>  (420) 
0.504858

>  <∆∆G>  (420) 
-4.573431

>  <N_constrained_atoms>  (420) 
30.0

>  <LE>  (420) 
-0.14753

>  <ref_pdb>  (420) 
x0104_0

>  <ref_mols>  (420) 
x0814_0_B_α,x0299_0_A_α

>  <%Rank>  (420) 
7.18943

>  <generation_date>  (420) 
nan

>  <method>  (420) 
nan

>  <submitter_email>  (420) 
nan

>  <original SMILES>  (420) 
CCCC(=O)NC(CC1CC(C(N)=O)C(C)N(S(C)(=O)=O)C1)c1nc2ccccc2[nH]1

>  <ref_url>  (420) 
nan

>  <submitter_name>  (420) 
nan

>  <submitter_institution>  (420) 
nan

$$$$
x0628_0_A_α-x0844_0_A_α
     RDKit          3D

 22 23  0  0  0  0  0  0  0  0999 V2000
   -0.8650    9.0630   -7.2600 C   0  0  0  0  0  0  0  0  0  0  0  0
   -0.8740   10.2700   -6.4110 C   0  0  0  0  0  0  0  0  0  0  0  0
   -1.8960   10.5690   -5.5460 N   0  0  0  0  0  0  0  0  0  0  0  0
    0.1220   11.1600   -6.4280 N   0  0  0  0  0  0  0  0  0  0  0  0
   -0.2970   12.0630   -5.5180 N   0  0  0  0  0  0  0  0  0  0  0  0
   -1.5190   11.7050   -4.9870 C   0  0  0  0  0  0  0  0  0  0  0  0
   -2.2990   12.4600   -3.9520 C   0  0  0  0  0  0  0  0  0  0  0  0
    0.5410   13.2150   -5.2460 C   0  0  0  0  0  0  0  0  0  0  0  0
    1.6460   12.9290   -4.2350 C   0  0  0  0  0  0  0  0  0  0  0  0
   -2.2240   13.9870   -4.0760 C   0  0  0  0  0  0  0  0  0  0  0  0
    1.0990   12.2440   -3.0150 C   0  0  0  0  0  0  0  0  0  0  0  0
   -3.4660   14.7140   -3.5410 C   0  0  0  0  0  0  0  0  0  0  0  0
    0.5700   11.1450   -2.9620 O   0  0  0  0  0  0  0  0  0  0  0  0
    1.2430   12.9790   -1.9010 O   0  0  0  0  0  0  0  0  0  0  0  0
   -3.2140   15.2200   -2.2220 O   0  0  0  0  0  0  0  0  0  0  0  0
   -4.0810   14.6960   -1.2060 C   0  0  1  0  0  0  0  0  0  0  0  0
   -3.5280   15.0790    0.1290 C   0  0  0  0  0  0  0  0  0  0  0  0
   -5.5260   15.1660   -1.3530 C   0  0  0  0  0  0  0  0  0  0  0  0
   -4.3240   15.1360    1.1990 C   0  0  0  0  0  0  0  0  0  0  0  0
   -6.3440   14.9010   -0.1080 C   0  0  0  0  0  0  0  0  0  0  0  0
   -7.5680   14.7550   -0.1330 O   0  0  0  0  0  0  0  0  0  0  0  0
   -5.6470   14.8400    1.0760 N   0  0  0  0  0  0  0  0  0  0  0  0
  1  2  1  0
  2  3  1  0
  2  4  2  0
  4  5  1  0
  3  6  2  0
  5  6  1  0
  6  7  1  0
  5  8  1  0
  8  9  1  0
  7 10  1  0
  9 11  1  0
 10 12  1  0
 11 13  2  0
 11 14  1  0
 12 15  1  0
 16 15  1  6
 16 17  1  0
 16 18  1  0
 17 19  2  0
 18 20  1  0
 20 21  2  0
 19 22  1  0
 20 22  1  0
M  END
>  <comRMSD>  (421) 
0.197064

>  <∆∆G>  (421) 
-3.627112

>  <N_constrained_atoms>  (421) 
20.0

>  <LE>  (421) 
-0.164869

>  <ref_pdb>  (421) 
x0104_0

>  <ref_mols>  (421) 
x0628_0_A_α,x0844_0_A_α

>  <%Rank>  (421) 
7.206589

>  <generation_date>  (421) 
nan

>  <method>  (421) 
nan

>  <submitter_email>  (421) 
nan

>  <original SMILES>  (421) 
Cc1nc(CCCOC2C=CNC(=O)C2)n(CCC(=O)O)n1

>  <ref_url>  (421) 
nan

>  <submitter_name>  (421) 
nan

>  <submitter_institution>  (421) 
nan

$$$$
x0724_0_A_α-x0662_0_A_β
     RDKit          3D

 27 29  0  0  0  0  0  0  0  0999 V2000
   -8.2390   13.7900    4.4180 N   0  0  0  0  0  0  0  0  0  0  0  0
   -8.6600   13.9730    5.7980 C   0  0  0  0  0  0  0  0  0  0  0  0
   -8.4140   15.0190    3.6600 C   0  0  0  0  0  0  0  0  0  0  0  0
   -7.7290   14.8660    2.3500 C   0  0  0  0  0  0  0  0  0  0  0  0
   -6.3730   14.8480    2.0850 C   0  0  0  0  0  0  0  0  0  0  0  0
   -8.3120   14.7100    1.0770 C   0  0  0  0  0  0  0  0  0  0  0  0
   -7.4100   14.6090    0.0980 N   0  0  0  0  0  0  0  0  0  0  0  0
   -6.2040   14.6980    0.7260 N   0  0  0  0  0  0  0  0  0  0  0  0
   -4.9790   14.6380   -0.0030 C   0  0  0  0  0  0  0  0  0  0  0  0
   -3.7350   14.6930    0.6480 C   0  0  0  0  0  0  0  0  0  0  0  0
   -5.0230   14.5220   -1.3950 C   0  0  0  0  0  0  0  0  0  0  0  0
   -2.5510   14.6170   -0.1050 C   0  0  0  0  0  0  0  0  0  0  0  0
   -3.8420   14.4490   -2.1380 C   0  0  0  0  0  0  0  0  0  0  0  0
   -2.5970   14.4890   -1.5020 C   0  0  0  0  0  0  0  0  0  0  0  0
   -1.3230   14.3860   -2.3310 C   0  0  0  0  0  0  0  0  0  0  0  0
   -1.5130   13.4640   -3.5500 C   0  0  0  0  0  0  0  0  0  0  0  0
   -0.5300   12.2850   -3.5870 C   0  0  0  0  0  0  0  0  0  0  0  0
   -0.7310   11.4670   -4.7850 N   0  0  0  0  0  0  0  0  0  0  0  0
    0.1210   11.4520   -5.7550 C   0  0  0  0  0  0  0  0  0  0  0  0
    1.1870   12.0870   -5.8450 O   0  0  0  0  0  0  0  0  0  0  0  0
   -0.0150   10.6330   -7.0100 C   0  0  0  0  0  0  0  0  0  0  0  0
    0.8050   10.9070   -8.1000 C   0  0  0  0  0  0  0  0  0  0  0  0
   -0.9540    9.6000   -7.0960 C   0  0  0  0  0  0  0  0  0  0  0  0
    0.7100   10.1800   -9.2870 C   0  0  0  0  0  0  0  0  0  0  0  0
   -1.0590    8.8590   -8.2770 C   0  0  0  0  0  0  0  0  0  0  0  0
    1.5360   10.4720  -10.3830 N   0  0  0  0  0  0  0  0  0  0  0  0
   -0.2290    9.1500   -9.3670 C   0  0  0  0  0  0  0  0  0  0  0  0
  1  2  1  0
  1  3  1  0
  3  4  1  0
  4  5  2  0
  4  6  1  0
  6  7  2  0
  5  8  1  0
  7  8  1  0
  8  9  1  0
  9 10  2  0
  9 11  1  0
 10 12  1  0
 11 13  2  0
 12 14  2  0
 13 14  1  0
 14 15  1  0
 15 16  1  0
 16 17  1  0
 17 18  1  0
 18 19  2  3
 19 20  1  0
 19 21  1  0
 21 22  2  0
 21 23  1  0
 22 24  1  0
 23 25  2  0
 24 26  1  0
 24 27  2  0
 25 27  1  0
M  CHG  1  20  -1
M  END
>  <comRMSD>  (422) 
0.231477

>  <∆∆G>  (422) 
-5.990641

>  <N_constrained_atoms>  (422) 
24.0

>  <LE>  (422) 
-0.221876

>  <ref_pdb>  (422) 
x0104_0

>  <ref_mols>  (422) 
x0724_0_A_α,x0662_0_A_β

>  <%Rank>  (422) 
7.223747

>  <generation_date>  (422) 
nan

>  <method>  (422) 
nan

>  <submitter_email>  (422) 
nan

>  <original SMILES>  (422) 
CNCc1cnn(-c2ccc(CCCN=C([O-])c3cccc(N)c3)cc2)c1

>  <ref_url>  (422) 
nan

>  <submitter_name>  (422) 
nan

>  <submitter_institution>  (422) 
nan

$$$$
x0626_0_A_α-x0852_0_B_α
     RDKit          3D

 23 24  0  0  0  0  0  0  0  0999 V2000
   -4.8830   14.8780    1.3390 N   0  0  0  0  0  0  0  0  0  0  0  0
   -6.0060   14.7420    0.5670 C   0  0  0  0  0  0  0  0  0  0  0  0
   -5.9110   14.9240   -0.6490 O   0  0  0  0  0  0  0  0  0  0  0  0
   -3.6100   14.7910    0.8760 C   0  0  0  0  0  0  0  0  0  0  0  0
   -7.3320   14.3760    1.1900 C   0  0  0  0  0  0  0  0  0  0  0  0
   -2.4840   14.6640    1.5460 N   0  0  0  0  0  0  0  0  0  0  0  0
   -3.4860   14.8510   -0.8270 S   0  0  0  0  0  0  0  0  0  0  0  0
   -8.3930   14.1050    0.1100 C   0  0  0  0  0  0  0  0  0  0  0  0
   -1.7900   14.6820   -0.6800 C   0  0  0  0  0  0  0  0  0  0  0  0
   -1.4390   14.5990    0.6520 C   0  0  0  0  0  0  0  0  0  0  0  0
   -0.0830   14.4480    1.1870 C   0  0  0  0  0  0  0  0  0  0  0  0
   -9.7870   14.6740    0.3830 C   0  0  0  0  0  0  0  0  0  0  0  0
   -9.8750   16.2010    0.3150 C   0  0  0  0  0  0  0  0  0  0  0  0
  -10.3360   16.7040    1.5700 O   0  0  0  0  0  0  0  0  0  0  0  0
   -9.6410   16.2770    2.6730 C   0  0  0  0  0  0  0  0  0  0  0  0
   -8.7360   15.2220    2.6770 C   0  0  0  0  0  0  0  0  0  0  0  0
   -9.8720   16.9620    3.8690 C   0  0  0  0  0  0  0  0  0  0  0  0
   -8.0560   14.8460    3.8320 C   0  0  0  0  0  0  0  0  0  0  0  0
   -9.1960   16.5890    5.0460 C   0  0  0  0  0  0  0  0  0  0  0  0
   -9.4610   17.3040    6.2580 C   0  0  0  0  0  0  0  0  0  0  0  0
   -8.2820   15.5280    5.0150 C   0  0  0  0  0  0  0  0  0  0  0  0
   -9.7130   17.8340    7.2630 N   0  0  0  0  0  0  0  0  0  0  0  0
   -7.6030   15.1500    6.1460 O   0  0  0  0  0  0  0  0  0  0  0  0
  1  2  1  0
  2  3  2  0
  1  4  1  0
  2  5  1  0
  4  6  2  0
  4  7  1  0
  5  8  1  0
  7  9  1  0
  6 10  1  0
  9 10  2  0
 10 11  1  0
  8 12  1  0
 12 13  1  0
 13 14  1  0
 14 15  1  0
 15 16  2  0
 15 17  1  0
 16 18  1  0
 17 19  2  0
 19 20  1  0
 18 21  2  0
 19 21  1  0
 20 22  3  0
 21 23  1  0
M  END
>  <comRMSD>  (423) 
0.319704

>  <∆∆G>  (423) 
-8.016557

>  <N_constrained_atoms>  (423) 
21.0

>  <LE>  (423) 
-0.348546

>  <ref_pdb>  (423) 
x0104_0

>  <ref_mols>  (423) 
x0626_0_A_α,x0852_0_B_α

>  <%Rank>  (423) 
7.240906

>  <generation_date>  (423) 
nan

>  <method>  (423) 
nan

>  <submitter_email>  (423) 
nan

>  <original SMILES>  (423) 
Cc1csc(NC(=O)CCCCOc2ccc(O)c(C#N)c2)n1

>  <ref_url>  (423) 
nan

>  <submitter_name>  (423) 
nan

>  <submitter_institution>  (423) 
nan

$$$$
x0465_0_A_α-x0681_0_A_α
     RDKit          3D

 27 29  0  0  0  0  0  0  0  0999 V2000
    1.9070   13.2650   -4.7880 C   0  0  0  0  0  0  0  0  0  0  0  0
    0.5980   12.4980   -4.5830 C   0  0  1  0  0  0  0  0  0  0  0  0
    0.6230   11.4570   -5.5860 O   0  0  0  0  0  0  0  0  0  0  0  0
    0.5890   11.9580   -3.1400 C   0  0  0  0  0  0  0  0  0  0  0  0
    0.5480   12.7060   -2.0980 N   0  0  0  0  0  0  0  0  0  0  0  0
    0.6180   10.6190   -3.0020 O   0  0  0  0  0  0  0  0  0  0  0  0
   -0.5350   10.7760   -5.8780 C   0  0  0  0  0  0  0  0  0  0  0  0
    0.4250   14.1610   -2.2090 C   0  0  0  0  0  0  0  0  0  0  0  0
   -0.6340    9.6070   -6.6470 C   0  0  0  0  0  0  0  0  0  0  0  0
   -1.6990   11.3140   -5.3560 C   0  0  0  0  0  0  0  0  0  0  0  0
    0.4400    9.0360   -7.1980 F   0  0  0  0  0  0  0  0  0  0  0  0
   -0.8070   14.6260   -1.3930 C   0  0  0  0  0  0  0  0  0  0  0  0
   -1.8560    8.9930   -6.8710 C   0  0  0  0  0  0  0  0  0  0  0  0
   -2.9360   10.7010   -5.5830 C   0  0  0  0  0  0  0  0  0  0  0  0
   -1.9640   14.8980   -2.2830 N   0  0  0  0  0  0  0  0  0  0  0  0
   -3.0160    9.5380   -6.3360 C   0  0  0  0  0  0  0  0  0  0  0  0
   -3.2270   14.8890   -1.9470 C   0  0  0  0  0  0  0  0  0  0  0  0
   -4.2900   15.1660   -2.7740 N   0  0  0  0  0  0  0  0  0  0  0  0
   -3.6550   14.5530   -0.5090 C   0  0  2  0  0  0  0  0  0  0  0  0
   -4.8830   13.6710   -0.5920 C   0  0  0  0  0  0  0  0  0  0  0  0
   -3.9790   15.7390    0.3860 C   0  0  0  0  0  0  0  0  0  0  0  0
   -5.8680   13.6740    0.3640 N   0  0  0  0  0  0  0  0  0  0  0  0
   -4.5460   15.2740    1.6930 C   0  0  0  0  0  0  0  0  0  0  0  0
   -5.2020   12.8100   -1.5280 N   0  0  0  0  0  0  0  0  0  0  0  0
   -5.8730   14.5100    1.5160 C   0  0  0  0  0  0  0  0  0  0  0  0
   -6.8190   12.7660    0.0310 C   0  0  0  0  0  0  0  0  0  0  0  0
   -6.3840   12.2390   -1.1490 C   0  0  0  0  0  0  0  0  0  0  0  0
  2  1  1  1
  2  3  1  0
  2  4  1  0
  4  5  2  3
  4  6  1  0
  3  7  1  0
  5  8  1  0
  7  9  2  0
  7 10  1  0
  9 11  1  0
  8 12  1  0
  9 13  1  0
 10 14  2  0
 12 15  1  0
 13 16  2  0
 14 16  1  0
 15 17  2  3
 17 18  1  0
 19 17  1  6
 19 20  1  0
 19 21  1  0
 20 22  1  0
 21 23  1  0
 20 24  2  0
 22 25  1  0
 23 25  1  0
 22 26  1  0
 24 27  1  0
 26 27  2  0
M  END
>  <comRMSD>  (424) 
0.421789

>  <∆∆G>  (424) 
-9.338519

>  <N_constrained_atoms>  (424) 
25.0

>  <LE>  (424) 
-0.345871

>  <ref_pdb>  (424) 
x0104_0

>  <ref_mols>  (424) 
x0465_0_A_α,x0681_0_A_α

>  <%Rank>  (424) 
7.258065

>  <generation_date>  (424) 
nan

>  <method>  (424) 
nan

>  <submitter_email>  (424) 
nan

>  <original SMILES>  (424) 
C[C@@H](Oc1ccccc1F)C(O)=NCCN=C(N)C1CCCn2ccnc21

>  <ref_url>  (424) 
nan

>  <submitter_name>  (424) 
nan

>  <submitter_institution>  (424) 
nan

$$$$
5l9k_A_0_A_γ-x0727_0_A_α
     RDKit          3D

 20 21  0  0  0  0  0  0  0  0999 V2000
   -2.1210   12.5070   -3.8780 O   0  0  0  0  0  0  0  0  0  0  0  0
   -1.9600   13.8800   -4.2330 C   0  0  1  0  0  0  0  0  0  0  0  0
   -1.7130   14.7470   -3.0060 C   0  0  0  0  0  0  0  0  0  0  0  0
   -0.6970   14.2010   -5.0320 C   0  0  2  0  0  0  0  0  0  0  0  0
    0.5040   13.6890   -4.4460 O   0  0  0  0  0  0  0  0  0  0  0  0
   -0.8760   15.8280   -3.4670 O   0  0  0  0  0  0  0  0  0  0  0  0
   -0.7990   15.7200   -4.8910 C   0  0  1  0  0  0  0  0  0  0  0  0
    0.3340   16.6120   -5.3780 C   0  0  0  0  0  0  0  0  0  0  0  0
    0.8580   12.3120   -4.6300 C   0  0  2  0  0  0  0  0  0  0  0  0
    0.0230   11.6290   -5.5910 N   0  0  0  0  0  0  0  0  0  0  0  0
    0.7180   11.6940   -3.2170 C   0  0  0  0  0  0  0  0  0  0  0  0
    0.1170   10.6690   -2.9370 O   0  0  0  0  0  0  0  0  0  0  0  0
    0.6410   11.1950   -6.7420 C   0  0  0  0  0  0  0  0  0  0  0  0
    1.3620   12.4470   -2.2820 O   0  0  0  0  0  0  0  0  0  0  0  0
    1.6490   11.7330   -7.1360 O   0  0  0  0  0  0  0  0  0  0  0  0
    0.0450   10.0010   -7.4870 C   0  0  0  0  0  0  0  0  0  0  0  0
   -1.2350   10.3500   -8.2450 C   0  0  0  0  0  0  0  0  0  0  0  0
   -0.3010    8.8130   -6.5720 C   0  0  0  0  0  0  0  0  0  0  0  0
   -2.1230    9.1200   -8.1170 C   0  0  0  0  0  0  0  0  0  0  0  0
   -1.7870    8.5560   -6.7470 C   0  0  0  0  0  0  0  0  0  0  0  0
  2  1  1  1
  2  3  1  0
  2  4  1  0
  4  5  1  1
  3  6  1  0
  4  7  1  0
  6  7  1  0
  7  8  1  1
  5  9  1  0
  9 10  1  6
  9 11  1  0
 11 12  2  0
 10 13  1  0
 11 14  1  0
 13 15  2  0
 13 16  1  0
 16 17  1  0
 16 18  1  0
 17 19  1  0
 18 20  1  0
 19 20  1  0
M  END
>  <comRMSD>  (425) 
0.402048

>  <∆∆G>  (425) 
-1.443719

>  <N_constrained_atoms>  (425) 
20.0

>  <LE>  (425) 
-0.072186

>  <ref_pdb>  (425) 
x0104_0

>  <ref_mols>  (425) 
x0727_0_A_α

>  <%Rank>  (425) 
7.275223

>  <generation_date>  (425) 
nan

>  <method>  (425) 
nan

>  <submitter_email>  (425) 
nan

>  <original SMILES>  (425) 
CC1OCC(O)C1O[C@@H](NC(=O)C1CCCC1)C(=O)O

>  <ref_url>  (425) 
nan

>  <submitter_name>  (425) 
nan

>  <submitter_institution>  (425) 
nan

$$$$
x1015_0_A_α-x1018_0_A_α
     RDKit          3D

 27 30  0  0  0  0  0  0  0  0999 V2000
   -1.4740   14.2470   -4.0270 C   0  0  0  0  0  0  0  0  0  0  0  0
   -0.0820   13.6580   -3.8100 C   0  0  2  0  0  0  0  0  0  0  0  0
   -0.0510   12.1930   -3.9200 N   0  0  0  0  0  0  0  0  0  0  0  0
    0.3710   13.7490   -2.3420 C   0  0  0  0  0  0  0  0  0  0  0  0
    0.1030   14.6410   -1.4500 N   0  0  0  0  0  0  0  0  0  0  0  0
    0.4640   11.6450   -2.7390 C   0  0  0  0  0  0  0  0  0  0  0  0
    1.1240   12.6600   -2.1320 N   0  0  0  0  0  0  0  0  0  0  0  0
   -0.4580   11.4400   -5.0520 C   0  0  0  0  0  0  0  0  0  0  0  0
    0.3720   10.5080   -2.2770 O   0  0  0  0  0  0  0  0  0  0  0  0
   -0.7540   15.8150   -1.6040 C   0  0  0  0  0  0  0  0  0  0  0  0
    0.0830   11.6530   -6.3280 C   0  0  0  0  0  0  0  0  0  0  0  0
   -1.4300   10.4340   -4.9140 C   0  0  0  0  0  0  0  0  0  0  0  0
   -2.0260   15.6430   -0.7410 C   0  0  0  0  0  0  0  0  0  0  0  0
   -0.3310   10.8880   -7.4260 C   0  0  0  0  0  0  0  0  0  0  0  0
   -1.8460    9.6680   -6.0060 C   0  0  0  0  0  0  0  0  0  0  0  0
   -1.2940    9.8970   -7.2580 C   0  0  0  0  0  0  0  0  0  0  0  0
   -3.0090   14.6750   -1.1940 N   0  0  0  0  0  0  0  0  0  0  0  0
   -1.8070    8.9530   -8.5990 Cl  0  0  0  0  0  0  0  0  0  0  0  0
   -3.5470   15.0000   -2.5170 N   0  0  0  0  0  0  0  0  0  0  0  0
   -4.1270   14.2160   -0.3670 C   0  0  2  0  0  0  0  0  0  0  0  0
   -4.9620   14.7500   -2.4660 N   0  0  0  0  0  0  0  0  0  0  0  0
   -5.2490   14.7400   -1.1230 N   0  0  0  0  0  0  0  0  0  0  0  0
   -4.2980   14.6970    1.0310 C   0  0  0  0  0  0  0  0  0  0  0  0
   -6.5390   14.6020   -0.7330 N   0  0  0  0  0  0  0  0  0  0  0  0
   -5.5420   14.9250    1.4960 C   0  0  0  0  0  0  0  0  0  0  0  0
   -6.6730   14.6850    0.5480 C   0  0  0  0  0  0  0  0  0  0  0  0
   -8.2870   14.5180    1.1500 Cl  0  0  0  0  0  0  0  0  0  0  0  0
  2  1  1  1
  2  3  1  0
  2  4  1  0
  4  5  2  3
  3  6  1  0
  4  7  1  0
  6  7  1  0
  3  8  1  0
  6  9  2  0
  5 10  1  0
  8 11  2  0
  8 12  1  0
 10 13  1  0
 11 14  1  0
 12 15  2  0
 14 16  2  0
 15 16  1  0
 13 17  1  0
 16 18  1  0
 17 19  1  0
 17 20  1  0
 19 21  1  0
 20 22  1  0
 21 22  1  0
 20 23  1  1
 22 24  1  0
 23 25  2  0
 24 26  2  0
 25 26  1  0
 26 27  1  0
M  END
>  <comRMSD>  (426) 
0.341794

>  <∆∆G>  (426) 
-4.985267

>  <N_constrained_atoms>  (426) 
25.0

>  <LE>  (426) 
-0.18464

>  <ref_pdb>  (426) 
x0104_0

>  <ref_mols>  (426) 
x1015_0_A_α,x1018_0_A_α

>  <%Rank>  (426) 
7.292382

>  <generation_date>  (426) 
nan

>  <method>  (426) 
nan

>  <submitter_email>  (426) 
nan

>  <original SMILES>  (426) 
CC1C(=NCCN2NNN3N=C(Cl)C=CC23)NC(=O)N1c1ccc(Cl)cc1

>  <ref_url>  (426) 
nan

>  <submitter_name>  (426) 
nan

>  <submitter_institution>  (426) 
nan

$$$$
x0128_0_A_α-mac-194_0_A_α
     RDKit          3D

 20 22  0  0  0  0  0  0  0  0999 V2000
   -6.5310   14.7950    2.4430 N   0  0  0  0  0  0  0  0  0  0  0  0
   -7.7080   15.1540    3.0720 C   0  0  0  0  0  0  0  0  0  0  0  0
   -8.7660   15.3620    2.4780 O   0  0  0  0  0  0  0  0  0  0  0  0
   -6.3180   14.7740    1.0860 C   0  0  0  0  0  0  0  0  0  0  0  0
   -7.7050   15.3060    4.4360 N   0  0  0  0  0  0  0  0  0  0  0  0
   -7.3020   14.7660    0.1880 C   0  0  0  0  0  0  0  0  0  0  0  0
   -5.0140   14.7770    0.3760 C   0  0  0  0  0  0  0  0  0  0  0  0
   -6.7290   14.7750   -1.1540 C   0  0  0  0  0  0  0  0  0  0  0  0
   -5.2860   14.7870   -0.9990 C   0  0  0  0  0  0  0  0  0  0  0  0
   -8.5060   16.1190    5.2680 C   0  0  0  0  0  0  0  0  0  0  0  0
   -3.6770   14.7710    0.7750 C   0  0  0  0  0  0  0  0  0  0  0  0
   -7.3530   14.7650   -2.1870 O   0  0  0  0  0  0  0  0  0  0  0  0
   -9.1840   17.2680    4.8650 C   0  0  0  0  0  0  0  0  0  0  0  0
   -8.6400   15.7470    6.6070 C   0  0  0  0  0  0  0  0  0  0  0  0
   -2.6820   14.7750   -0.2210 C   0  0  0  0  0  0  0  0  0  0  0  0
   -4.3370   14.7960   -1.9920 C   0  0  0  0  0  0  0  0  0  0  0  0
   -9.9510   18.0300    5.6800 N   0  0  0  0  0  0  0  0  0  0  0  0
   -9.4220   16.5150    7.4710 C   0  0  0  0  0  0  0  0  0  0  0  0
   -3.0090   14.7900   -1.5930 C   0  0  0  0  0  0  0  0  0  0  0  0
  -10.0520   17.6400    6.9620 C   0  0  0  0  0  0  0  0  0  0  0  0
  1  2  1  0
  2  3  2  0
  1  4  1  0
  2  5  1  0
  4  6  2  0
  4  7  1  0
  6  8  1  0
  7  9  2  0
  8  9  1  0
  5 10  1  0
  7 11  1  0
  8 12  2  0
 10 13  2  0
 10 14  1  0
 11 15  2  0
  9 16  1  0
 13 17  1  0
 14 18  2  0
 15 19  1  0
 16 19  2  0
 17 20  2  0
 18 20  1  0
M  END
>  <comRMSD>  (427) 
0.5137

>  <∆∆G>  (427) 
-5.897927

>  <N_constrained_atoms>  (427) 
20.0

>  <LE>  (427) 
-0.294896

>  <ref_pdb>  (427) 
x0104_0

>  <ref_mols>  (427) 
x0128_0_A_α

>  <%Rank>  (427) 
7.30954

>  <generation_date>  (427) 
nan

>  <method>  (427) 
nan

>  <submitter_email>  (427) 
nan

>  <original SMILES>  (427) 
O=C(NC1=CC(=O)c2ccccc21)Nc1cccnc1

>  <ref_url>  (427) 
nan

>  <submitter_name>  (427) 
nan

>  <submitter_institution>  (427) 
nan

$$$$
x1015_0_A_α-x0685_0_A_α
     RDKit          3D

 28 30  0  0  0  0  0  0  0  0999 V2000
   -1.3410   13.9540   -4.7080 C   0  0  0  0  0  0  0  0  0  0  0  0
    0.0380   13.5650   -4.1830 C   0  0  2  0  0  0  0  0  0  0  0  0
    0.1210   12.1270   -4.0330 N   0  0  0  0  0  0  0  0  0  0  0  0
    0.2070   14.0070   -2.7500 C   0  0  0  0  0  0  0  0  0  0  0  0
    0.1880   15.1930   -2.2680 N   0  0  0  0  0  0  0  0  0  0  0  0
    0.2460   11.7650   -2.6780 C   0  0  0  0  0  0  0  0  0  0  0  0
    0.4010   12.9220   -1.9550 N   0  0  0  0  0  0  0  0  0  0  0  0
   -0.3610   11.3170   -5.0850 C   0  0  0  0  0  0  0  0  0  0  0  0
    0.2320   10.6380   -2.1700 O   0  0  0  0  0  0  0  0  0  0  0  0
   -0.0170   16.3210   -3.1990 C   0  0  0  0  0  0  0  0  0  0  0  0
    0.1300   11.4950   -6.3830 C   0  0  0  0  0  0  0  0  0  0  0  0
   -1.3340   10.3260   -4.8760 C   0  0  0  0  0  0  0  0  0  0  0  0
   -1.4200   16.2940   -3.8360 C   0  0  0  0  0  0  0  0  0  0  0  0
   -0.3290   10.7140   -7.4440 C   0  0  0  0  0  0  0  0  0  0  0  0
   -1.7970    9.5400   -5.9340 C   0  0  0  0  0  0  0  0  0  0  0  0
   -2.4520   15.7910   -2.9130 C   0  0  0  0  0  0  0  0  0  0  0  0
   -1.2920    9.7390   -7.2160 C   0  0  0  0  0  0  0  0  0  0  0  0
   -1.8600    8.7780   -8.5200 Cl  0  0  0  0  0  0  0  0  0  0  0  0
   -3.2190   15.4900   -2.0520 C   0  0  0  0  0  0  0  0  0  0  0  0
   -4.0270   15.3050   -0.9010 C   0  0  0  0  0  0  0  0  0  0  0  0
   -3.4250   15.3900    0.3420 C   0  0  0  0  0  0  0  0  0  0  0  0
   -5.3870   15.0550   -0.9590 C   0  0  0  0  0  0  0  0  0  0  0  0
   -4.2010   15.2380    1.4760 C   0  0  0  0  0  0  0  0  0  0  0  0
   -6.1630   14.8980    0.1390 N   0  0  0  0  0  0  0  0  0  0  0  0
   -5.5670   15.0010    1.3460 C   0  0  0  0  0  0  0  0  0  0  0  0
   -6.3100   14.8910    2.5210 N   0  0  0  0  0  0  0  0  0  0  0  0
   -7.7500   14.7000    2.4540 C   0  0  0  0  0  0  0  0  0  0  0  0
   -8.1360   13.3410    3.0050 C   0  0  0  0  0  0  0  0  0  0  0  0
  2  1  1  1
  2  3  1  0
  2  4  1  0
  4  5  2  3
  3  6  1  0
  4  7  1  0
  6  7  1  0
  3  8  1  0
  6  9  2  0
  5 10  1  0
  8 11  2  0
  8 12  1  0
 10 13  1  0
 11 14  1  0
 12 15  2  0
 13 16  1  0
 14 17  2  0
 15 17  1  0
 17 18  1  0
 16 19  3  0
 19 20  1  0
 20 21  2  0
 20 22  1  0
 21 23  1  0
 22 24  2  0
 23 25  2  0
 24 25  1  0
 25 26  1  0
 26 27  1  0
 27 28  1  0
M  END
>  <comRMSD>  (428) 
0.417744

>  <∆∆G>  (428) 
-8.165348

>  <N_constrained_atoms>  (428) 
26.0

>  <LE>  (428) 
-0.29162

>  <ref_pdb>  (428) 
x0104_0

>  <ref_mols>  (428) 
x1015_0_A_α,x0685_0_A_α

>  <%Rank>  (428) 
7.326699

>  <generation_date>  (428) 
nan

>  <method>  (428) 
nan

>  <submitter_email>  (428) 
nan

>  <original SMILES>  (428) 
CCNc1ccc(C#CCCN=C2NC(=O)N(c3ccc(Cl)cc3)C2C)cn1

>  <ref_url>  (428) 
nan

>  <submitter_name>  (428) 
nan

>  <submitter_institution>  (428) 
nan

$$$$
x0371_0_A_α-x0592_0_A_α
     RDKit          3D

 17 18  0  0  0  0  0  0  0  0999 V2000
   -8.0210   14.6220    2.6310 N   0  0  0  0  0  0  0  0  0  0  0  0
   -8.7710   15.5180    3.3720 C   0  0  0  0  0  0  0  0  0  0  0  0
   -9.5330   16.3090    2.8240 O   0  0  0  0  0  0  0  0  0  0  0  0
   -8.1570   14.5280    1.1800 C   0  0  0  0  0  0  0  0  0  0  0  0
   -8.6010   15.4710    4.8190 C   0  0  0  0  0  0  0  0  0  0  0  0
   -6.9140   14.7200    0.4120 N   0  0  0  0  0  0  0  0  0  0  0  0
   -8.0250   14.3810    5.4140 O   0  0  0  0  0  0  0  0  0  0  0  0
   -8.9410   16.3890    5.8000 C   0  0  0  0  0  0  0  0  0  0  0  0
   -6.9560   15.0340   -0.9060 N   0  0  0  0  0  0  0  0  0  0  0  0
   -5.6380   14.6190    0.8880 C   0  0  0  0  0  0  0  0  0  0  0  0
   -7.9960   14.6080    6.7520 C   0  0  0  0  0  0  0  0  0  0  0  0
   -8.5500   15.8280    7.0430 C   0  0  0  0  0  0  0  0  0  0  0  0
   -4.7870   14.8810   -0.1680 C   0  0  0  0  0  0  0  0  0  0  0  0
   -5.6630   15.1310   -1.2510 C   0  0  0  0  0  0  0  0  0  0  0  0
   -3.3360   14.9030   -0.1880 C   0  0  0  0  0  0  0  0  0  0  0  0
   -2.7210   14.9630    1.0260 N   0  0  0  0  0  0  0  0  0  0  0  0
   -2.6750   14.8660   -1.2170 O   0  0  0  0  0  0  0  0  0  0  0  0
  1  2  1  0
  2  3  2  0
  1  4  1  0
  2  5  1  0
  4  6  1  0
  5  7  1  0
  5  8  2  0
  6  9  1  0
  6 10  1  0
  7 11  1  0
  8 12  1  0
 11 12  2  0
 10 13  2  0
  9 14  2  0
 13 14  1  0
 13 15  1  0
 15 16  1  0
 15 17  2  0
M  END
>  <comRMSD>  (429) 
0.441163

>  <∆∆G>  (429) 
-4.59251

>  <N_constrained_atoms>  (429) 
17.0

>  <LE>  (429) 
-0.270148

>  <ref_pdb>  (429) 
x0104_0

>  <ref_mols>  (429) 
x0371_0_A_α,x0592_0_A_α

>  <%Rank>  (429) 
7.343857

>  <generation_date>  (429) 
nan

>  <method>  (429) 
nan

>  <submitter_email>  (429) 
nan

>  <original SMILES>  (429) 
NC(=O)c1cnn(CNC(=O)c2ccco2)c1

>  <ref_url>  (429) 
nan

>  <submitter_name>  (429) 
nan

>  <submitter_institution>  (429) 
nan

$$$$
x0290_0_A_α-x0910_0_A_α
     RDKit          3D

 13 13  0  0  0  0  0  0  0  0999 V2000
   -7.7470   13.8170    0.9300 N   0  0  0  0  0  0  0  0  0  0  0  0
   -8.6140   14.9670    0.6930 C   0  0  0  0  0  0  0  0  0  0  0  0
   -6.5520   14.1550    1.7350 C   0  0  0  0  0  0  0  0  0  0  0  0
   -5.3340   14.4540    0.8530 C   0  0  0  0  0  0  0  0  0  0  0  0
   -5.4460   14.4880   -0.3790 O   0  0  0  0  0  0  0  0  0  0  0  0
   -4.1060   14.6800    1.3850 N   0  0  0  0  0  0  0  0  0  0  0  0
   -2.8300   14.6430    0.8260 C   0  0  0  0  0  0  0  0  0  0  0  0
   -1.8180   14.5770    1.7220 N   0  0  0  0  0  0  0  0  0  0  0  0
   -2.5970   14.6670   -0.5370 C   0  0  0  0  0  0  0  0  0  0  0  0
   -0.5550   14.5330    1.2470 C   0  0  0  0  0  0  0  0  0  0  0  0
   -1.2840   14.6210   -1.0140 C   0  0  0  0  0  0  0  0  0  0  0  0
   -1.0200   14.6420   -2.4900 C   0  0  0  0  0  0  0  0  0  0  0  0
   -0.2380   14.5530   -0.0960 C   0  0  0  0  0  0  0  0  0  0  0  0
  1  2  1  0
  1  3  1  0
  3  4  1  0
  4  5  2  0
  4  6  1  0
  6  7  1  0
  7  8  2  0
  7  9  1  0
  8 10  1  0
  9 11  2  0
 11 12  1  0
 10 13  2  0
 11 13  1  0
M  END
>  <comRMSD>  (430) 
0.460144

>  <∆∆G>  (430) 
-6.551424

>  <N_constrained_atoms>  (430) 
13.0

>  <LE>  (430) 
-0.503956

>  <ref_pdb>  (430) 
x0104_0

>  <ref_mols>  (430) 
x0290_0_A_α,x0910_0_A_α

>  <%Rank>  (430) 
7.361016

>  <generation_date>  (430) 
nan

>  <method>  (430) 
nan

>  <submitter_email>  (430) 
nan

>  <original SMILES>  (430) 
CNCC(=O)Nc1cc(C)ccn1

>  <ref_url>  (430) 
nan

>  <submitter_name>  (430) 
nan

>  <submitter_institution>  (430) 
nan

$$$$
5cb5_E_0_E_γ-EU0241_0_A_α
     RDKit          3D

 19 21  0  0  0  0  0  0  0  0999 V2000
   -1.0300   12.6790   -4.1030 O   0  0  0  0  0  0  0  0  0  0  0  0
   -0.8410   14.0930   -4.1280 C   0  0  1  0  0  0  0  0  0  0  0  0
   -0.3030   14.7480   -2.8590 C   0  0  1  0  0  0  0  0  0  0  0  0
    0.2280   14.4960   -5.1200 C   0  0  2  0  0  0  0  0  0  0  0  0
    1.2840   13.5370   -5.0710 O   0  0  0  0  0  0  0  0  0  0  0  0
    0.9060   14.0830   -2.1520 C   0  0  0  0  0  0  0  0  0  0  0  0
    0.0970   16.0510   -3.3060 O   0  0  0  0  0  0  0  0  0  0  0  0
    0.7060   15.8670   -4.5990 C   0  0  2  0  0  0  0  0  0  0  0  0
    0.2880   17.0670   -5.4440 C   0  0  0  0  0  0  0  0  0  0  0  0
    0.5550   13.6630   -0.7980 N   0  0  0  0  0  0  0  0  0  0  0  0
   -0.5870   14.1110   -0.1640 C   0  0  0  0  0  0  0  0  0  0  0  0
   -1.8420   14.2810   -0.9220 C   0  0  0  0  0  0  0  0  0  0  0  0
   -0.6110   14.4100    1.1510 C   0  0  0  0  0  0  0  0  0  0  0  0
   -2.9370   14.7290   -0.3170 C   0  0  0  0  0  0  0  0  0  0  0  0
   -1.7260   14.8670    1.7990 N   0  0  0  0  0  0  0  0  0  0  0  0
   -2.8850   15.0370    1.1080 C   0  0  0  0  0  0  0  0  0  0  0  0
   -4.3010   15.0420   -0.6580 C   0  0  0  0  0  0  0  0  0  0  0  0
   -4.0430   15.4600    1.5190 N   0  0  0  0  0  0  0  0  0  0  0  0
   -4.9540   15.4600    0.3800 N   0  0  0  0  0  0  0  0  0  0  0  0
  2  1  1  1
  2  3  1  0
  2  4  1  0
  4  5  1  1
  3  6  1  6
  3  7  1  0
  4  8  1  0
  7  8  1  0
  8  9  1  6
  6 10  1  0
 10 11  1  0
 11 12  1  0
 11 13  2  0
 12 14  2  0
 13 15  1  0
 14 16  1  0
 15 16  1  0
 14 17  1  0
 16 18  2  0
 17 19  2  0
 18 19  1  0
M  END
>  <comRMSD>  (431) 
0.38686

>  <∆∆G>  (431) 
-7.493262

>  <N_constrained_atoms>  (431) 
18.0

>  <LE>  (431) 
-0.394382

>  <ref_pdb>  (431) 
x0104_0

>  <ref_mols>  (431) 


>  <%Rank>  (431) 
7.378174

>  <generation_date>  (431) 
nan

>  <method>  (431) 
nan

>  <submitter_email>  (431) 
nan

>  <original SMILES>  (431) 
CC1OC(CNc2c[nH]c3nncc-3c2)C(O)C1O

>  <ref_url>  (431) 
nan

>  <submitter_name>  (431) 
nan

>  <submitter_institution>  (431) 
nan

$$$$
x0548_0_B_α-x0548_1_B_α
     RDKit          3D

 15 16  0  0  0  0  0  0  0  0999 V2000
   -6.1040   34.6750    8.7930 C   0  0  0  0  0  0  0  0  0  0  0  0
   -7.4960   34.5690    8.5300 O   0  0  0  0  0  0  0  0  0  0  0  0
   -7.9830   35.3940    7.5570 C   0  0  0  0  0  0  0  0  0  0  0  0
   -7.5540   36.6450    7.2870 C   0  0  0  0  0  0  0  0  0  0  0  0
   -9.0710   34.7960    6.7720 C   0  0  0  0  0  0  0  0  0  0  0  0
   -8.2030   37.3670    6.2320 C   0  0  0  0  0  0  0  0  0  0  0  0
   -9.8700   35.5550    6.0080 C   0  0  0  0  0  0  0  0  0  0  0  0
   -9.6340   37.0260    5.9910 C   0  0  2  0  0  0  0  0  0  0  0  0
   -7.7600   38.3190    5.4280 C   0  0  0  0  0  0  0  0  0  0  0  0
   -6.4840   39.0590    5.2420 C   0  0  0  0  0  0  0  0  0  0  0  0
  -10.0300   37.8300    4.8250 N   0  0  0  0  0  0  0  0  0  0  0  0
   -8.9590   38.5350    4.5990 C   0  0  0  0  0  0  0  0  0  0  0  0
   -6.1290   40.0110    6.3170 N   0  0  0  0  0  0  0  0  0  0  0  0
   -6.9690   39.8570    7.5060 C   0  0  0  0  0  0  0  0  0  0  0  0
   -4.7090   39.9410    6.6750 C   0  0  0  0  0  0  0  0  0  0  0  0
  1  2  1  0
  2  3  1  0
  3  4  2  0
  3  5  1  0
  4  6  1  0
  5  7  2  0
  6  8  1  0
  8  7  1  6
  6  9  2  0
  9 10  1  0
  8 11  1  0
  9 12  1  0
 11 12  2  0
 10 13  1  0
 13 14  1  0
 13 15  1  0
M  END
>  <comRMSD>  (432) 
0.395741

>  <∆∆G>  (432) 
-4.036637

>  <N_constrained_atoms>  (432) 
15.0

>  <LE>  (432) 
-0.269109

>  <ref_pdb>  (432) 
x0104_0

>  <ref_mols>  (432) 
x0548_0_B_α,x0548_1_B_α

>  <%Rank>  (432) 
7.395333

>  <generation_date>  (432) 
nan

>  <method>  (432) 
nan

>  <submitter_email>  (432) 
nan

>  <original SMILES>  (432) 
COC1=CC2=C(CN(C)C)C=NC2C=C1

>  <ref_url>  (432) 
nan

>  <submitter_name>  (432) 
nan

>  <submitter_institution>  (432) 
nan

$$$$
x0438_0_A_α-x0253_0_A_α
     RDKit          3D

 31 33  0  0  0  0  0  0  0  0999 V2000
   -8.1450   15.4800    3.7940 C   0  0  0  0  0  0  0  0  0  0  0  0
   -9.3920   15.3330    2.5240 S   0  0  0  0  0  0  0  0  0  0  0  0
  -10.5840   14.7960    3.1580 O   0  0  0  0  0  0  0  0  0  0  0  0
   -8.8150   14.0960    1.3700 C   0  0  0  0  0  0  0  0  0  0  0  0
   -9.5040   16.5750    1.7930 O   0  0  0  0  0  0  0  0  0  0  0  0
   -7.4310   14.3640    0.9060 C   0  0  0  0  0  0  0  0  0  0  0  0
   -7.1120   14.8060   -0.3620 N   0  0  0  0  0  0  0  0  0  0  0  0
   -6.3500   14.2100    1.6240 N   0  0  0  0  0  0  0  0  0  0  0  0
   -5.2970   14.5430    0.8160 C   0  0  0  0  0  0  0  0  0  0  0  0
   -5.7430   14.9250   -0.4390 C   0  0  0  0  0  0  0  0  0  0  0  0
   -4.8740   15.3140   -1.4600 C   0  0  0  0  0  0  0  0  0  0  0  0
   -3.9330   14.5340    1.1040 C   0  0  0  0  0  0  0  0  0  0  0  0
   -3.5030   15.2930   -1.1560 C   0  0  0  0  0  0  0  0  0  0  0  0
   -3.0160   14.9050    0.1170 C   0  0  0  0  0  0  0  0  0  0  0  0
   -1.5380   14.8610    0.4790 C   0  0  0  0  0  0  0  0  0  0  0  0
   -0.6210   14.7670   -0.7440 C   0  0  0  0  0  0  0  0  0  0  0  0
    0.0210   13.3990   -0.8990 C   0  0  0  0  0  0  0  0  0  0  0  0
    0.7250   13.3370   -2.1720 N   0  0  0  0  0  0  0  0  0  0  0  0
    0.6910   12.3180   -2.9490 C   0  0  0  0  0  0  0  0  0  0  0  0
   -0.0110   11.2250   -2.5680 O   0  0  0  0  0  0  0  0  0  0  0  0
    1.3670   12.2090   -4.3020 C   0  0  0  0  0  0  0  0  0  0  0  0
    0.4370   11.9420   -5.3970 N   0  0  0  0  0  0  0  0  0  0  0  0
    1.0110   11.7330   -6.6190 C   0  0  0  0  0  0  0  0  0  0  0  0
    2.1190   12.1820   -6.7900 O   0  0  0  0  0  0  0  0  0  0  0  0
    0.3130   10.9060   -7.6540 C   0  0  0  0  0  0  0  0  0  0  0  0
   -0.8550   10.2000   -7.3490 C   0  0  0  0  0  0  0  0  0  0  0  0
    0.8360   10.8120   -8.9470 C   0  0  0  0  0  0  0  0  0  0  0  0
   -1.4700    9.3920   -8.3090 C   0  0  0  0  0  0  0  0  0  0  0  0
    0.2230   10.0220   -9.9090 C   0  0  0  0  0  0  0  0  0  0  0  0
   -2.7020    8.6210   -7.9440 C   0  0  0  0  0  0  0  0  0  0  0  0
   -0.9260    9.3080   -9.5890 C   0  0  0  0  0  0  0  0  0  0  0  0
  2  1  1  0
  2  3  2  0
  2  4  1  0
  2  5  2  0
  4  6  1  0
  6  7  1  0
  6  8  2  0
  8  9  1  0
  7 10  1  0
  9 10  2  0
 10 11  1  0
  9 12  1  0
 11 13  2  0
 12 14  2  0
 13 14  1  0
 14 15  1  0
 15 16  1  0
 16 17  1  0
 17 18  1  0
 18 19  2  3
 19 20  1  0
 19 21  1  0
 21 22  1  0
 22 23  1  0
 23 24  2  0
 23 25  1  0
 25 26  2  0
 25 27  1  0
 26 28  1  0
 27 29  2  0
 28 30  1  0
 28 31  2  0
 29 31  1  0
M  END
>  <comRMSD>  (433) 
0.369016

>  <∆∆G>  (433) 
-8.895401

>  <N_constrained_atoms>  (433) 
28.0

>  <LE>  (433) 
-0.286948

>  <ref_pdb>  (433) 
x0104_0

>  <ref_mols>  (433) 
x0438_0_A_α,x0253_0_A_α

>  <%Rank>  (433) 
7.412491

>  <generation_date>  (433) 
nan

>  <method>  (433) 
nan

>  <submitter_email>  (433) 
nan

>  <original SMILES>  (433) 
Cc1cccc(C(=O)NCC(O)=NCCCc2ccc3[nH]c(CS(C)(=O)=O)nc3c2)c1

>  <ref_url>  (433) 
nan

>  <submitter_name>  (433) 
nan

>  <submitter_institution>  (433) 
nan

$$$$
x0685_0_A_α-x0727_0_A_α
     RDKit          3D

 27 28  0  0  0  0  0  0  0  0999 V2000
   -6.2680   14.9610    2.6030 N   0  0  0  0  0  0  0  0  0  0  0  0
   -7.7120   14.7850    2.5840 C   0  0  0  0  0  0  0  0  0  0  0  0
   -8.0760   13.3630    2.9680 C   0  0  0  0  0  0  0  0  0  0  0  0
   -5.5890   14.9940    1.3810 C   0  0  0  0  0  0  0  0  0  0  0  0
   -4.1980   15.1200    1.3790 C   0  0  0  0  0  0  0  0  0  0  0  0
   -6.2950   14.9200    0.2390 N   0  0  0  0  0  0  0  0  0  0  0  0
   -3.5180   15.1850    0.1660 C   0  0  0  0  0  0  0  0  0  0  0  0
   -5.6200   14.9890   -0.9200 C   0  0  0  0  0  0  0  0  0  0  0  0
   -4.2540   15.1250   -1.0140 C   0  0  0  0  0  0  0  0  0  0  0  0
   -3.6610   15.1990   -2.2960 C   0  0  0  0  0  0  0  0  0  0  0  0
   -3.2220   15.2780   -3.4000 C   0  0  0  0  0  0  0  0  0  0  0  0
   -2.6980   15.3480   -4.7620 C   0  0  0  0  0  0  0  0  0  0  0  0
   -1.7320   14.1920   -4.9890 C   0  0  0  0  0  0  0  0  0  0  0  0
   -0.4420   14.3760   -4.1920 C   0  0  0  0  0  0  0  0  0  0  0  0
    0.7540   13.8430   -4.9770 C   0  0  0  0  0  0  0  0  0  0  0  0
    0.9960   12.3520   -4.7540 C   0  0  2  0  0  0  0  0  0  0  0  0
    0.1410   11.5270   -5.6110 N   0  0  0  0  0  0  0  0  0  0  0  0
    0.7430   11.9360   -3.3040 C   0  0  0  0  0  0  0  0  0  0  0  0
    0.0970   10.9610   -2.9420 O   0  0  0  0  0  0  0  0  0  0  0  0
    0.6780   11.1230   -6.8010 C   0  0  0  0  0  0  0  0  0  0  0  0
    1.3110   12.7570   -2.4020 O   0  0  0  0  0  0  0  0  0  0  0  0
    1.6550   11.6720   -7.2410 O   0  0  0  0  0  0  0  0  0  0  0  0
    0.0420    9.9470   -7.5250 C   0  0  0  0  0  0  0  0  0  0  0  0
   -1.2510   10.3290   -8.2470 C   0  0  0  0  0  0  0  0  0  0  0  0
   -0.3100    8.7710   -6.5980 C   0  0  0  0  0  0  0  0  0  0  0  0
   -2.1610    9.1190   -8.0920 C   0  0  0  0  0  0  0  0  0  0  0  0
   -1.8070    8.5580   -6.7270 C   0  0  0  0  0  0  0  0  0  0  0  0
  1  2  1  0
  2  3  1  0
  1  4  1  0
  4  5  2  0
  4  6  1  0
  5  7  1  0
  6  8  2  0
  7  9  2  0
  8  9  1  0
  9 10  1  0
 10 11  3  0
 11 12  1  0
 12 13  1  0
 13 14  1  0
 14 15  1  0
 16 15  1  1
 16 17  1  0
 16 18  1  0
 18 19  2  0
 17 20  1  0
 18 21  1  0
 20 22  2  0
 20 23  1  0
 23 24  1  0
 23 25  1  0
 24 26  1  0
 25 27  1  0
 26 27  1  0
M  END
>  <comRMSD>  (434) 
0.267529

>  <∆∆G>  (434) 
-7.709246

>  <N_constrained_atoms>  (434) 
24.0

>  <LE>  (434) 
-0.285528

>  <ref_pdb>  (434) 
x0104_0

>  <ref_mols>  (434) 
x0685_0_A_α,x0727_0_A_α

>  <%Rank>  (434) 
7.42965

>  <generation_date>  (434) 
nan

>  <method>  (434) 
nan

>  <submitter_email>  (434) 
nan

>  <original SMILES>  (434) 
CCNc1ccc(C#CCCCC[C@H](NC(=O)C2CCCC2)C(=O)O)cn1

>  <ref_url>  (434) 
nan

>  <submitter_name>  (434) 
nan

>  <submitter_institution>  (434) 
nan

$$$$
x0465_0_A_α-x0587_0_A_α
     RDKit          3D

 29 30  0  0  0  0  0  0  0  0999 V2000
    2.0970   13.1310   -4.3840 C   0  0  0  0  0  0  0  0  0  0  0  0
    0.7960   12.3370   -4.1730 C   0  0  1  0  0  0  0  0  0  0  0  0
    0.5570   11.4390   -5.2770 O   0  0  0  0  0  0  0  0  0  0  0  0
    0.5800   11.7320   -2.7500 C   0  0  0  0  0  0  0  0  0  0  0  0
    0.4700   12.4080   -1.6500 N   0  0  0  0  0  0  0  0  0  0  0  0
    0.4890   10.3780   -2.6870 O   0  0  0  0  0  0  0  0  0  0  0  0
   -0.6460   10.8200   -5.4850 C   0  0  0  0  0  0  0  0  0  0  0  0
    0.5380   13.8680   -1.6780 C   0  0  0  0  0  0  0  0  0  0  0  0
   -0.6860    9.8520   -6.5120 C   0  0  0  0  0  0  0  0  0  0  0  0
   -1.8140   11.0660   -4.7690 C   0  0  0  0  0  0  0  0  0  0  0  0
    0.3990    9.5680   -7.2450 F   0  0  0  0  0  0  0  0  0  0  0  0
   -0.6770   14.3760   -0.8820 C   0  0  0  0  0  0  0  0  0  0  0  0
   -1.8520    9.1540   -6.8050 C   0  0  0  0  0  0  0  0  0  0  0  0
   -2.9900   10.3650   -5.0670 C   0  0  0  0  0  0  0  0  0  0  0  0
   -1.9680   14.3600   -1.7140 C   0  0  0  0  0  0  0  0  0  0  0  0
   -3.0080    9.4110   -6.0810 C   0  0  0  0  0  0  0  0  0  0  0  0
   -3.0430   14.9260   -0.9540 O   0  0  0  0  0  0  0  0  0  0  0  0
   -4.3590   14.5410   -1.3900 C   0  0  0  0  0  0  0  0  0  0  0  0
   -4.2540   13.3060   -1.9620 F   0  0  0  0  0  0  0  0  0  0  0  0
   -4.6670   15.3710   -2.4310 F   0  0  0  0  0  0  0  0  0  0  0  0
   -5.4360   14.6090   -0.2860 C   0  0  0  0  0  0  0  0  0  0  0  0
   -6.7420   14.4770   -0.6290 N   0  0  0  0  0  0  0  0  0  0  0  0
   -5.0200   14.8050    0.9870 N   0  0  0  0  0  0  0  0  0  0  0  0
   -7.6590   14.5570    0.3650 C   0  0  0  0  0  0  0  0  0  0  0  0
   -5.9780   14.8760    1.9370 C   0  0  0  0  0  0  0  0  0  0  0  0
   -7.3310   14.7620    1.6850 C   0  0  0  0  0  0  0  0  0  0  0  0
   -8.2860   14.8740    2.7970 C   0  0  0  0  0  0  0  0  0  0  0  0
   -7.7930   14.8390    4.0650 N   0  0  0  0  0  0  0  0  0  0  0  0
   -9.4860   15.0100    2.5860 O   0  0  0  0  0  0  0  0  0  0  0  0
  2  1  1  1
  2  3  1  0
  2  4  1  0
  4  5  2  3
  4  6  1  0
  3  7  1  0
  5  8  1  0
  7  9  2  0
  7 10  1  0
  9 11  1  0
  8 12  1  0
  9 13  1  0
 10 14  2  0
 12 15  1  0
 13 16  2  0
 14 16  1  0
 15 17  1  0
 17 18  1  0
 18 19  1  0
 18 20  1  0
 18 21  1  0
 21 22  2  0
 21 23  1  0
 22 24  1  0
 23 25  2  0
 24 26  2  0
 25 26  1  0
 26 27  1  0
 27 28  1  0
 27 29  2  0
M  END
>  <comRMSD>  (435) 
0.325287

>  <∆∆G>  (435) 
-8.514944

>  <N_constrained_atoms>  (435) 
26.0

>  <LE>  (435) 
-0.293619

>  <ref_pdb>  (435) 
x0104_0

>  <ref_mols>  (435) 
x0465_0_A_α,x0587_0_A_α

>  <%Rank>  (435) 
7.446809

>  <generation_date>  (435) 
nan

>  <method>  (435) 
nan

>  <submitter_email>  (435) 
nan

>  <original SMILES>  (435) 
C[C@@H](Oc1ccccc1F)C(O)=NCCCOC(F)(F)c1ncc(C(N)=O)cn1

>  <ref_url>  (435) 
nan

>  <submitter_name>  (435) 
nan

>  <submitter_institution>  (435) 
nan

$$$$
x0662_0_A_β-x0676_0_B_α
     RDKit          3D

 22 24  0  0  0  0  0  0  0  0999 V2000
    1.5710    9.4260  -10.5190 N   0  0  0  0  0  0  0  0  0  0  0  0
    0.7410    9.5570   -9.3500 C   0  0  0  0  0  0  0  0  0  0  0  0
   -0.2900    8.6180   -9.2530 C   0  0  0  0  0  0  0  0  0  0  0  0
    2.6920    8.6090  -10.5810 C   0  0  0  0  0  0  0  0  0  0  0  0
    0.8610   10.5110   -8.3090 C   0  0  0  0  0  0  0  0  0  0  0  0
    3.1060    7.6220   -9.7040 C   0  0  0  0  0  0  0  0  0  0  0  0
    3.6690    8.6550  -11.5830 N   0  0  0  0  0  0  0  0  0  0  0  0
   -0.0170   10.5190   -7.1970 C   0  0  0  0  0  0  0  0  0  0  0  0
   -1.1630    8.6160   -8.1750 C   0  0  0  0  0  0  0  0  0  0  0  0
    4.6660    7.7430  -11.3490 N   0  0  0  0  0  0  0  0  0  0  0  0
    4.3290    7.1450  -10.2180 C   0  0  0  0  0  0  0  0  0  0  0  0
    3.7700    9.4950  -12.7220 C   0  0  0  0  0  0  0  0  0  0  0  0
    0.0980   11.5250   -6.0580 C   0  0  0  0  0  0  0  0  0  0  0  0
    5.2230    6.1210   -9.6640 C   0  0  0  0  0  0  0  0  0  0  0  0
   -1.0260    9.5510   -7.1580 C   0  0  0  0  0  0  0  0  0  0  0  0
    2.8810   10.5570  -12.9200 C   0  0  0  0  0  0  0  0  0  0  0  0
    4.7880    9.2800  -13.6590 C   0  0  0  0  0  0  0  0  0  0  0  0
   -0.9100   11.6600   -5.2930 O   0  0  0  0  0  0  0  0  0  0  0  0
    1.2020   12.1450   -5.9300 O   0  0  0  0  0  0  0  0  0  0  0  0
    3.0080   11.3910  -14.0260 C   0  0  0  0  0  0  0  0  0  0  0  0
    4.9120   10.1160  -14.7690 C   0  0  0  0  0  0  0  0  0  0  0  0
    4.0230   11.1740  -14.9520 C   0  0  0  0  0  0  0  0  0  0  0  0
  1  2  1  0
  2  3  2  0
  1  4  1  0
  2  5  1  0
  4  6  2  0
  4  7  1  0
  5  8  2  0
  3  9  1  0
  7 10  1  0
  6 11  1  0
 10 11  2  0
  7 12  1  0
  8 13  1  0
 11 14  1  0
  8 15  1  0
  9 15  2  0
 12 16  2  0
 12 17  1  0
 13 18  2  0
 13 19  1  0
 16 20  1  0
 17 21  2  0
 20 22  2  0
 21 22  1  0
M  CHG  1  19  -1
M  END
>  <comRMSD>  (436) 
0.50838

>  <∆∆G>  (436) 
-4.552231

>  <N_constrained_atoms>  (436) 
22.0

>  <LE>  (436) 
-0.20692

>  <ref_pdb>  (436) 
x0104_0

>  <ref_mols>  (436) 
x0662_0_A_β,x0676_0_B_α

>  <%Rank>  (436) 
7.463967

>  <generation_date>  (436) 
nan

>  <method>  (436) 
nan

>  <submitter_email>  (436) 
nan

>  <original SMILES>  (436) 
Cc1cc(Nc2cccc(C(=O)[O-])c2)n(-c2ccccc2)n1

>  <ref_url>  (436) 
nan

>  <submitter_name>  (436) 
nan

>  <submitter_institution>  (436) 
nan

$$$$
x0837_0_A_α-x0844_0_A_α
     RDKit          3D

  8  8  0  0  0  0  0  0  0  0999 V2000
   -7.5950   14.6910    0.2170 O   0  0  0  0  0  0  0  0  0  0  0  0
   -6.3730   14.8370    0.1670 C   0  0  0  0  0  0  0  0  0  0  0  0
   -5.6010   14.8820    1.3090 N   0  0  0  0  0  0  0  0  0  0  0  0
   -5.6190   14.9850   -1.1300 C   0  0  0  0  0  0  0  0  0  0  0  0
   -4.2740   15.1970    1.3220 C   0  0  0  0  0  0  0  0  0  0  0  0
   -4.2060   14.4430   -0.9960 C   0  0  1  0  0  0  0  0  0  0  0  0
   -3.0310   14.8190   -2.7710 I   0  0  0  0  0  0  0  0  0  0  0  0
   -3.5400   15.0010    0.2220 C   0  0  0  0  0  0  0  0  0  0  0  0
  1  2  2  0
  2  3  1  0
  2  4  1  0
  3  5  1  0
  4  6  1  0
  6  7  1  6
  5  8  2  0
  6  8  1  0
M  END
>  <comRMSD>  (437) 
0.281517

>  <∆∆G>  (437) 
-3.736278

>  <N_constrained_atoms>  (437) 
8.0

>  <LE>  (437) 
-0.467035

>  <ref_pdb>  (437) 
x0104_0

>  <ref_mols>  (437) 
x0837_0_A_α,x0844_0_A_α

>  <%Rank>  (437) 
7.481126

>  <generation_date>  (437) 
nan

>  <method>  (437) 
nan

>  <submitter_email>  (437) 
nan

>  <original SMILES>  (437) 
O=C1CC(I)C=CN1

>  <ref_url>  (437) 
nan

>  <submitter_name>  (437) 
nan

>  <submitter_institution>  (437) 
nan

$$$$
x0689_0_A_α-5CMS_0_R_δ
     RDKit          3D

 11 12  0  0  0  0  0  0  0  0999 V2000
   -3.7950   14.5300    1.3290 N   0  0  0  0  0  0  0  0  0  0  0  0
   -4.4580   15.7890    1.2560 C   0  0  0  0  0  0  0  0  0  0  0  0
   -2.4860   14.5500    0.8900 C   0  0  0  0  0  0  0  0  0  0  0  0
   -2.2690   14.6340   -0.4710 C   0  0  0  0  0  0  0  0  0  0  0  0
   -1.4640   14.4890    1.7550 N   0  0  0  0  0  0  0  0  0  0  0  0
   -0.9790   14.6480   -0.9650 C   0  0  0  0  0  0  0  0  0  0  0  0
   -0.2190   14.5070    1.2440 C   0  0  0  0  0  0  0  0  0  0  0  0
   -3.2290   14.7120   -1.5170 N   0  0  0  0  0  0  0  0  0  0  0  0
    0.0940   14.5850   -0.1060 C   0  0  0  0  0  0  0  0  0  0  0  0
   -0.9640   14.7330   -2.3750 N   0  0  0  0  0  0  0  0  0  0  0  0
   -2.3970   14.7570   -2.7170 C   0  0  0  0  0  0  0  0  0  0  0  0
  1  2  1  0
  1  3  1  0
  3  4  2  0
  3  5  1  0
  4  6  1  0
  5  7  2  0
  4  8  1  0
  6  9  2  0
  7  9  1  0
  6 10  1  0
  8 11  1  0
 10 11  1  0
M  END
>  <comRMSD>  (438) 
0.494265

>  <∆∆G>  (438) 
-7.519534

>  <N_constrained_atoms>  (438) 
11.0

>  <LE>  (438) 
-0.683594

>  <ref_pdb>  (438) 
x0104_0

>  <ref_mols>  (438) 
x0689_0_A_α

>  <%Rank>  (438) 
7.498284

>  <generation_date>  (438) 
nan

>  <method>  (438) 
nan

>  <submitter_email>  (438) 
nan

>  <original SMILES>  (438) 
CNc1nccc2c1NCN2

>  <ref_url>  (438) 
nan

>  <submitter_name>  (438) 
nan

>  <submitter_institution>  (438) 
nan

$$$$
6WOJ_0_A_β-6MEA_0_B_β
     RDKit          3D

  9  8  0  0  0  0  0  0  0  0999 V2000
   -1.6280   20.5600   -7.7330 O   0  0  0  0  0  0  0  0  0  0  0  0
   -0.1400   19.9610   -7.8790 P   0  0  0  0  0  0  0  0  0  0  0  0
   -0.0700   19.0690   -6.6690 O   0  0  0  0  0  0  0  0  0  0  0  0
    1.1800   20.8510   -7.4340 O   0  0  0  0  0  0  0  0  0  0  0  0
    0.0940   18.6060   -8.8370 O   0  0  0  0  0  0  0  0  0  0  0  0
   -1.3520   18.4030   -5.9060 P   0  0  0  0  0  0  0  0  0  0  0  0
   -0.5650   17.1490   -5.5320 O   0  0  0  0  0  0  0  0  0  0  0  0
   -1.6150   18.7440   -4.3520 O   0  0  0  0  0  0  0  0  0  0  0  0
   -2.5290   17.6020   -6.7650 O   0  0  0  0  0  0  0  0  0  0  0  0
  1  2  1  0
  2  3  1  0
  2  4  1  0
  2  5  1  0
  3  6  1  0
  6  7  1  0
  6  8  1  0
  6  9  1  0
M  CHG  2   4  -1   8  -1
M  END
>  <comRMSD>  (439) 
0.474017

>  <∆∆G>  (439) 
-6.988236

>  <N_constrained_atoms>  (439) 
9.0

>  <LE>  (439) 
-0.776471

>  <ref_pdb>  (439) 
x0104_0

>  <ref_mols>  (439) 


>  <%Rank>  (439) 
7.515443

>  <generation_date>  (439) 
nan

>  <method>  (439) 
nan

>  <submitter_email>  (439) 
nan

>  <original SMILES>  (439) 
[O-][PH](O)(O)O[PH]([O-])(O)O

>  <ref_url>  (439) 
nan

>  <submitter_name>  (439) 
nan

>  <submitter_institution>  (439) 
nan

$$$$
x0950_1_A_α-x0626_0_A_α
     RDKit          3D

 19 19  0  0  0  0  0  0  0  0999 V2000
    1.0130   13.9600   -4.7310 C   0  0  0  0  0  0  0  0  0  0  0  0
    1.3340   12.4960   -4.5010 C   0  0  2  0  0  0  0  0  0  0  0  0
    0.6920   11.7280   -5.5160 O   0  0  0  0  0  0  0  0  0  0  0  0
    0.9510   12.0360   -3.0810 C   0  0  0  0  0  0  0  0  0  0  0  0
    0.3620   10.9960   -2.8240 O   0  0  0  0  0  0  0  0  0  0  0  0
    1.3520   12.9460   -2.1490 O   0  0  0  0  0  0  0  0  0  0  0  0
    0.4070   13.9980   -1.9150 C   0  0  0  0  0  0  0  0  0  0  0  0
    0.7050   14.8050   -0.6610 C   0  0  0  0  0  0  0  0  0  0  0  0
   -0.0960   14.4470    0.6040 C   0  0  0  0  0  0  0  0  0  0  0  0
   -1.5470   14.6180    0.3450 C   0  0  0  0  0  0  0  0  0  0  0  0
   -2.4690   14.6400    1.3770 N   0  0  0  0  0  0  0  0  0  0  0  0
   -2.0690   14.7650   -0.9210 C   0  0  0  0  0  0  0  0  0  0  0  0
   -3.6710   14.7990    0.8350 C   0  0  0  0  0  0  0  0  0  0  0  0
   -3.7570   14.9360   -0.8600 S   0  0  0  0  0  0  0  0  0  0  0  0
   -4.8920   14.8710    1.4270 N   0  0  0  0  0  0  0  0  0  0  0  0
   -6.0930   14.7000    0.7960 C   0  0  0  0  0  0  0  0  0  0  0  0
   -6.1520   14.8400   -0.4310 O   0  0  0  0  0  0  0  0  0  0  0  0
   -7.3170   14.3530    1.6200 C   0  0  0  0  0  0  0  0  0  0  0  0
   -8.6130   14.5770    0.8510 C   0  0  0  0  0  0  0  0  0  0  0  0
  2  1  1  1
  2  3  1  0
  2  4  1  0
  4  5  2  0
  4  6  1  0
  6  7  1  0
  7  8  1  0
  8  9  1  0
  9 10  1  0
 10 11  1  0
 10 12  2  0
 11 13  2  0
 12 14  1  0
 13 14  1  0
 13 15  1  0
 15 16  1  0
 16 17  2  0
 16 18  1  0
 18 19  1  0
M  END
>  <comRMSD>  (440) 
0.244268

>  <∆∆G>  (440) 
-8.689597

>  <N_constrained_atoms>  (440) 
17.0

>  <LE>  (440) 
-0.457347

>  <ref_pdb>  (440) 
x0104_0

>  <ref_mols>  (440) 
x0950_1_A_α,x0626_0_A_α

>  <%Rank>  (440) 
7.532601

>  <generation_date>  (440) 
nan

>  <method>  (440) 
nan

>  <submitter_email>  (440) 
nan

>  <original SMILES>  (440) 
CCC(=O)Nc1nc(CCCOC(=O)[C@H](C)O)cs1

>  <ref_url>  (440) 
nan

>  <submitter_name>  (440) 
nan

>  <submitter_institution>  (440) 
nan

$$$$
x0727_0_A_α-x0849_0_A_α
     RDKit          3D

 25 27  0  0  0  0  0  0  0  0999 V2000
    0.2150   11.4530   -5.4600 N   0  0  0  0  0  0  0  0  0  0  0  0
    0.9850   12.4130   -4.6610 C   0  0  1  0  0  0  0  0  0  0  0  0
    0.6710   13.8240   -5.1250 C   0  0  0  0  0  0  0  0  0  0  0  0
    0.7240   11.1280   -6.6980 C   0  0  0  0  0  0  0  0  0  0  0  0
    1.6550   11.7420   -7.1570 O   0  0  0  0  0  0  0  0  0  0  0  0
    0.6530   12.2920   -3.1650 C   0  0  0  0  0  0  0  0  0  0  0  0
    0.1080    9.9560   -7.4530 C   0  0  0  0  0  0  0  0  0  0  0  0
    0.5340   11.2320   -2.5480 O   0  0  0  0  0  0  0  0  0  0  0  0
    0.4980   13.5650   -2.6670 O   0  0  0  0  0  0  0  0  0  0  0  0
   -1.1860   10.3370   -8.1750 C   0  0  0  0  0  0  0  0  0  0  0  0
   -0.2250    8.7470   -6.5620 C   0  0  0  0  0  0  0  0  0  0  0  0
    0.9960   13.9960   -1.3770 C   0  0  0  0  0  0  0  0  0  0  0  0
   -2.1010    9.1320   -8.0110 C   0  0  0  0  0  0  0  0  0  0  0  0
   -1.7320    8.5550   -6.6550 C   0  0  0  0  0  0  0  0  0  0  0  0
   -0.1770   14.2710   -0.4720 C   0  0  0  0  0  0  0  0  0  0  0  0
   -0.2200   14.2600    0.9280 C   0  0  0  0  0  0  0  0  0  0  0  0
   -1.3590   14.5730   -1.0840 C   0  0  0  0  0  0  0  0  0  0  0  0
   -2.5030   14.8450   -0.3370 C   0  0  0  0  0  0  0  0  0  0  0  0
   -1.3030   14.5230    1.6720 N   0  0  0  0  0  0  0  0  0  0  0  0
   -2.4240   14.8090    1.0520 C   0  0  0  0  0  0  0  0  0  0  0  0
   -3.7290   15.1530   -0.9150 C   0  0  0  0  0  0  0  0  0  0  0  0
   -3.9130   15.2040   -2.8040 Br  0  0  0  0  0  0  0  0  0  0  0  0
   -3.4710   15.0610    1.8000 N   0  0  0  0  0  0  0  0  0  0  0  0
   -4.8310   15.4210   -0.1300 C   0  0  0  0  0  0  0  0  0  0  0  0
   -4.6400   15.3590    1.2290 C   0  0  0  0  0  0  0  0  0  0  0  0
  1  2  1  0
  2  3  1  6
  1  4  1  0
  4  5  2  0
  2  6  1  0
  4  7  1  0
  6  8  2  0
  6  9  1  0
  7 10  1  0
  7 11  1  0
  9 12  1  0
 10 13  1  0
 11 14  1  0
 13 14  1  0
 12 15  1  0
 15 16  2  0
 15 17  1  0
 17 18  2  0
 16 19  1  0
 18 20  1  0
 19 20  2  0
 18 21  1  0
 21 22  1  0
 20 23  1  0
 21 24  2  0
 23 25  2  0
 24 25  1  0
M  END
>  <comRMSD>  (441) 
0.478759

>  <∆∆G>  (441) 
-7.191742

>  <N_constrained_atoms>  (441) 
24.0

>  <LE>  (441) 
-0.28767

>  <ref_pdb>  (441) 
x0104_0

>  <ref_mols>  (441) 
x0727_0_A_α,x0849_0_A_α

>  <%Rank>  (441) 
7.54976

>  <generation_date>  (441) 
nan

>  <method>  (441) 
nan

>  <submitter_email>  (441) 
nan

>  <original SMILES>  (441) 
C[C@H](NC(=O)C1CCCC1)C(=O)OCc1cnc2nccc(Br)c2c1

>  <ref_url>  (441) 
nan

>  <submitter_name>  (441) 
nan

>  <submitter_institution>  (441) 
nan

$$$$
5CB5_0_J_γ-3ew5_A_0_A_α
     RDKit          3D

 19 19  0  0  0  0  0  0  0  0999 V2000
   -1.1220   12.6430   -4.0830 O   0  0  0  0  0  0  0  0  0  0  0  0
   -0.2560   13.7420   -3.8560 C   0  0  2  0  0  0  0  0  0  0  0  0
   -0.8160   14.7620   -2.8900 C   0  0  0  0  0  0  0  0  0  0  0  0
    0.0020   14.5630   -5.1150 C   0  0  2  0  0  0  0  0  0  0  0  0
    1.2790   14.2270   -5.6250 O   0  0  0  0  0  0  0  0  0  0  0  0
   -0.1810   15.9810   -3.2530 O   0  0  0  0  0  0  0  0  0  0  0  0
   -0.2220   16.0330   -4.6770 C   0  0  1  0  0  0  0  0  0  0  0  0
    0.6660   17.1860   -5.2020 C   0  0  0  0  0  0  0  0  0  0  0  0
    0.2420   17.9560   -6.4610 C   0  0  0  0  0  0  0  0  0  0  0  0
   -0.0560   19.3200   -6.3320 O   0  0  0  0  0  0  0  0  0  0  0  0
   -0.2420   20.1060   -7.7220 P   0  0  1  0  0  0  0  0  0  0  0  0
   -1.8050   20.4520   -7.8520 O   0  0  0  0  0  0  0  0  0  0  0  0
    0.6880   21.2500   -7.9480 O   0  0  0  0  0  0  0  0  0  0  0  0
   -0.0120   18.9130   -8.7890 O   0  0  0  0  0  0  0  0  0  0  0  0
   -2.1880   21.7930   -8.1440 C   0  0  0  0  0  0  0  0  0  0  0  0
   -3.4140   22.2160   -7.3160 C   0  0  2  0  0  0  0  0  0  0  0  0
   -4.7190   22.2280   -8.1190 C   0  0  0  0  0  0  0  0  0  0  0  0
   -3.2140   23.5390   -6.7980 O   0  0  0  0  0  0  0  0  0  0  0  0
   -5.8350   22.0140   -7.2360 O   0  0  0  0  0  0  0  0  0  0  0  0
  2  1  1  6
  2  3  1  0
  2  4  1  0
  4  5  1  1
  3  6  1  0
  4  7  1  0
  6  7  1  0
  7  8  1  6
  8  9  1  0
  9 10  1  0
 10 11  1  0
 11 12  1  0
 11 13  2  0
 11 14  1  6
 12 15  1  0
 15 16  1  0
 16 17  1  0
 16 18  1  6
 17 19  1  0
M  END
>  <comRMSD>  (442) 
0.466497

>  <∆∆G>  (442) 
-10.394527

>  <N_constrained_atoms>  (442) 
18.0

>  <LE>  (442) 
-0.54708

>  <ref_pdb>  (442) 
x0104_0

>  <ref_mols>  (442) 


>  <%Rank>  (442) 
7.566918

>  <generation_date>  (442) 
nan

>  <method>  (442) 
nan

>  <submitter_email>  (442) 
nan

>  <original SMILES>  (442) 
O=P(O)(OCCC1OCC(O)C1O)OC[C@@H](O)CO

>  <ref_url>  (442) 
nan

>  <submitter_name>  (442) 
nan

>  <submitter_institution>  (442) 
nan

$$$$
x0805_0_A_β-x0290_0_A_α
     RDKit          3D

 22 23  0  0  0  0  0  0  0  0999 V2000
    0.4900   12.1630   -2.3560 C   0  0  0  0  0  0  0  0  0  0  0  0
    0.4090   10.9800   -2.9780 O   0  0  0  0  0  0  0  0  0  0  0  0
    0.2280   12.2660   -1.1810 O   0  0  0  0  0  0  0  0  0  0  0  0
    0.9360   13.3540   -3.1280 C   0  0  2  0  0  0  0  0  0  0  0  0
    0.1040   14.6330   -2.9490 C   0  0  2  0  0  0  0  0  0  0  0  0
    1.1870   13.0670   -4.5880 C   0  0  0  0  0  0  0  0  0  0  0  0
   -1.3390   14.4540   -2.4830 C   0  0  0  0  0  0  0  0  0  0  0  0
    2.0110   14.1020   -5.0770 O   0  0  0  0  0  0  0  0  0  0  0  0
    0.2090   15.4950   -4.1820 C   0  0  0  0  0  0  0  0  0  0  0  0
    1.6370   15.4240   -4.6550 C   0  0  0  0  0  0  0  0  0  0  0  0
   -1.4830   14.4980   -0.9830 C   0  0  0  0  0  0  0  0  0  0  0  0
   -0.3890   14.4760   -0.1130 C   0  0  0  0  0  0  0  0  0  0  0  0
   -2.7610   14.5600   -0.4450 C   0  0  0  0  0  0  0  0  0  0  0  0
   -0.6410   14.5120    1.2470 C   0  0  0  0  0  0  0  0  0  0  0  0
   -2.9340   14.5920    0.9200 C   0  0  0  0  0  0  0  0  0  0  0  0
   -4.1960   14.6480    1.4910 N   0  0  0  0  0  0  0  0  0  0  0  0
   -1.8880   14.5660    1.7800 N   0  0  0  0  0  0  0  0  0  0  0  0
   -5.4220   14.4800    0.9300 C   0  0  0  0  0  0  0  0  0  0  0  0
   -5.5180   14.6080   -0.2970 O   0  0  0  0  0  0  0  0  0  0  0  0
   -6.6480   14.1240    1.7700 C   0  0  0  0  0  0  0  0  0  0  0  0
   -7.7980   13.8410    0.8930 N   0  0  0  0  0  0  0  0  0  0  0  0
   -8.6590   14.9930    0.7270 C   0  0  0  0  0  0  0  0  0  0  0  0
  1  2  1  0
  1  3  2  0
  4  1  1  6
  4  5  1  0
  4  6  1  0
  5  7  1  6
  6  8  1  0
  5  9  1  0
  8 10  1  0
  9 10  1  0
  7 11  1  0
 11 12  2  0
 11 13  1  0
 12 14  1  0
 13 15  2  0
 15 16  1  0
 14 17  2  0
 15 17  1  0
 16 18  1  0
 18 19  2  0
 18 20  1  0
 20 21  1  0
 21 22  1  0
M  END
>  <comRMSD>  (443) 
0.580406

>  <∆∆G>  (443) 
-7.578517

>  <N_constrained_atoms>  (443) 
22.0

>  <LE>  (443) 
-0.344478

>  <ref_pdb>  (443) 
x0104_0

>  <ref_mols>  (443) 
x0805_0_A_β,x0290_0_A_α

>  <%Rank>  (443) 
7.584077

>  <generation_date>  (443) 
nan

>  <method>  (443) 
nan

>  <submitter_email>  (443) 
nan

>  <original SMILES>  (443) 
CNCC(=O)Nc1cc(CC2CCOCC2C(=O)O)ccn1

>  <ref_url>  (443) 
nan

>  <submitter_name>  (443) 
nan

>  <submitter_institution>  (443) 
nan

$$$$
x0628_0_A_α-x0849_0_A_α
     RDKit          3D

 25 27  0  0  0  0  0  0  0  0999 V2000
   -0.9220    9.0440   -7.3350 C   0  0  0  0  0  0  0  0  0  0  0  0
   -0.9020   10.2300   -6.4600 C   0  0  0  0  0  0  0  0  0  0  0  0
   -1.8700   10.4770   -5.5270 N   0  0  0  0  0  0  0  0  0  0  0  0
    0.0650   11.1480   -6.5160 N   0  0  0  0  0  0  0  0  0  0  0  0
   -0.3160   12.0160   -5.5610 N   0  0  0  0  0  0  0  0  0  0  0  0
   -1.4900   11.6080   -4.9600 C   0  0  0  0  0  0  0  0  0  0  0  0
   -2.2100   12.3170   -3.8520 C   0  0  0  0  0  0  0  0  0  0  0  0
    0.4820   13.1920   -5.2810 C   0  0  0  0  0  0  0  0  0  0  0  0
    1.6410   12.9620   -4.3160 C   0  0  0  0  0  0  0  0  0  0  0  0
   -2.5400   13.7860   -4.1490 C   0  0  0  0  0  0  0  0  0  0  0  0
    1.1670   12.2290   -3.0890 C   0  0  0  0  0  0  0  0  0  0  0  0
   -3.7140   14.3170   -3.3130 C   0  0  0  0  0  0  0  0  0  0  0  0
    0.4910   11.2110   -3.0750 O   0  0  0  0  0  0  0  0  0  0  0  0
    1.5660   12.8360   -1.9560 O   0  0  0  0  0  0  0  0  0  0  0  0
   -3.2430   15.3620   -2.4580 O   0  0  0  0  0  0  0  0  0  0  0  0
   -3.4260   15.2500   -1.0940 C   0  0  0  0  0  0  0  0  0  0  0  0
   -2.2870   14.9110   -0.3140 C   0  0  0  0  0  0  0  0  0  0  0  0
   -4.6370   15.4530   -0.4510 C   0  0  0  0  0  0  0  0  0  0  0  0
   -2.4420   14.8010    1.0750 C   0  0  0  0  0  0  0  0  0  0  0  0
   -4.6610   15.3110    0.9160 C   0  0  0  0  0  0  0  0  0  0  0  0
   -1.0000   14.6840   -0.8440 C   0  0  0  0  0  0  0  0  0  0  0  0
   -3.6010   14.9970    1.6610 N   0  0  0  0  0  0  0  0  0  0  0  0
   -1.4390   14.5000    1.8720 N   0  0  0  0  0  0  0  0  0  0  0  0
    0.0500   14.3700    0.0030 C   0  0  0  0  0  0  0  0  0  0  0  0
   -0.2330   14.2920    1.3520 C   0  0  0  0  0  0  0  0  0  0  0  0
  1  2  1  0
  2  3  1  0
  2  4  2  0
  4  5  1  0
  3  6  2  0
  5  6  1  0
  6  7  1  0
  5  8  1  0
  8  9  1  0
  7 10  1  0
  9 11  1  0
 10 12  1  0
 11 13  2  0
 11 14  1  0
 12 15  1  0
 15 16  1  0
 16 17  1  0
 16 18  2  0
 17 19  2  0
 18 20  1  0
 17 21  1  0
 19 22  1  0
 20 22  2  0
 19 23  1  0
 21 24  2  0
 23 25  2  0
 24 25  1  0
M  END
>  <comRMSD>  (444) 
0.300244

>  <∆∆G>  (444) 
-4.641167

>  <N_constrained_atoms>  (444) 
23.0

>  <LE>  (444) 
-0.185647

>  <ref_pdb>  (444) 
x0104_0

>  <ref_mols>  (444) 
x0628_0_A_α,x0849_0_A_α

>  <%Rank>  (444) 
7.601235

>  <generation_date>  (444) 
nan

>  <method>  (444) 
nan

>  <submitter_email>  (444) 
nan

>  <original SMILES>  (444) 
Cc1nc(CCCOc2ccnc3ncccc23)n(CCC(=O)O)n1

>  <ref_url>  (444) 
nan

>  <submitter_name>  (444) 
nan

>  <submitter_institution>  (444) 
nan

$$$$
x0465_0_A_α-x0685_0_A_α
     RDKit          3D

 27 28  0  0  0  0  0  0  0  0999 V2000
    2.3270   13.0690   -4.8720 C   0  0  0  0  0  0  0  0  0  0  0  0
    0.9030   12.5370   -4.6720 C   0  0  1  0  0  0  0  0  0  0  0  0
    0.6730   11.4860   -5.6110 O   0  0  0  0  0  0  0  0  0  0  0  0
    0.6690   12.2240   -3.1740 C   0  0  0  0  0  0  0  0  0  0  0  0
   -0.0410   13.6850   -5.1650 C   0  0  0  0  0  0  0  0  0  0  0  0
    0.8250   12.9880   -2.2340 O   0  0  0  0  0  0  0  0  0  0  0  0
    0.2740   10.9560   -2.9310 O   0  0  0  0  0  0  0  0  0  0  0  0
   -0.5850   14.6490   -4.0980 C   0  0  0  0  0  0  0  0  0  0  0  0
   -0.4740   10.7620   -5.7850 C   0  0  0  0  0  0  0  0  0  0  0  0
   -1.9920   15.1440   -4.4630 C   0  0  0  0  0  0  0  0  0  0  0  0
   -0.6570    9.6740   -6.6390 C   0  0  0  0  0  0  0  0  0  0  0  0
   -1.5670   11.1800   -5.0110 C   0  0  0  0  0  0  0  0  0  0  0  0
    0.3290    9.2120   -7.4150 F   0  0  0  0  0  0  0  0  0  0  0  0
   -2.8550   15.1180   -3.2750 C   0  0  0  0  0  0  0  0  0  0  0  0
   -1.8850    9.0170   -6.7250 C   0  0  0  0  0  0  0  0  0  0  0  0
   -2.8040   10.5250   -5.0930 C   0  0  0  0  0  0  0  0  0  0  0  0
   -3.4990   15.0940   -2.2670 C   0  0  0  0  0  0  0  0  0  0  0  0
   -2.9610    9.4400   -5.9520 C   0  0  0  0  0  0  0  0  0  0  0  0
   -4.1950   15.0760   -1.0280 C   0  0  0  0  0  0  0  0  0  0  0  0
   -3.4910   15.1780    0.1610 C   0  0  0  0  0  0  0  0  0  0  0  0
   -5.5710   14.9570   -0.9640 C   0  0  0  0  0  0  0  0  0  0  0  0
   -4.1860   15.1620    1.3600 C   0  0  0  0  0  0  0  0  0  0  0  0
   -6.2700   14.9350    0.1920 N   0  0  0  0  0  0  0  0  0  0  0  0
   -5.5710   15.0430    1.3370 C   0  0  0  0  0  0  0  0  0  0  0  0
   -6.3280   15.0400    2.4990 N   0  0  0  0  0  0  0  0  0  0  0  0
   -7.7270   14.6540    2.4520 C   0  0  0  0  0  0  0  0  0  0  0  0
   -7.9360   13.2810    3.0660 C   0  0  0  0  0  0  0  0  0  0  0  0
  2  1  1  1
  2  3  1  0
  2  4  1  0
  2  5  1  0
  4  6  2  0
  4  7  1  0
  5  8  1  0
  3  9  1  0
  8 10  1  0
  9 11  2  0
  9 12  1  0
 11 13  1  0
 10 14  1  0
 11 15  1  0
 12 16  2  0
 14 17  3  0
 15 18  2  0
 16 18  1  0
 17 19  1  0
 19 20  2  0
 19 21  1  0
 20 22  1  0
 21 23  2  0
 22 24  2  0
 23 24  1  0
 24 25  1  0
 25 26  1  0
 26 27  1  0
M  END
>  <comRMSD>  (445) 
0.286771

>  <∆∆G>  (445) 
-8.518878

>  <N_constrained_atoms>  (445) 
24.0

>  <LE>  (445) 
-0.315514

>  <ref_pdb>  (445) 
x0104_0

>  <ref_mols>  (445) 
x0465_0_A_α,x0685_0_A_α

>  <%Rank>  (445) 
7.618394

>  <generation_date>  (445) 
nan

>  <method>  (445) 
nan

>  <submitter_email>  (445) 
nan

>  <original SMILES>  (445) 
CCNc1ccc(C#CCCC[C@](C)(Oc2ccccc2F)C(=O)O)cn1

>  <ref_url>  (445) 
nan

>  <submitter_name>  (445) 
nan

>  <submitter_institution>  (445) 
nan

$$$$
x0727_0_A_α-x0676_0_B_α
     RDKit          3D

 28 30  0  0  0  0  0  0  0  0999 V2000
    0.1340   11.9280   -5.6050 N   0  0  0  0  0  0  0  0  0  0  0  0
    1.0820   12.5430   -4.6950 C   0  0  1  0  0  0  0  0  0  0  0  0
    0.9450   14.0550   -4.7990 C   0  0  0  0  0  0  0  0  0  0  0  0
    0.5100   11.1880   -6.6780 C   0  0  0  0  0  0  0  0  0  0  0  0
    1.5700   11.3870   -7.2440 O   0  0  0  0  0  0  0  0  0  0  0  0
    0.8680   12.0470   -3.2490 C   0  0  0  0  0  0  0  0  0  0  0  0
   -0.5130   10.1340   -7.0310 C   0  0  1  0  0  0  0  0  0  0  0  0
    0.2810   11.0110   -2.9500 O   0  0  0  0  0  0  0  0  0  0  0  0
    1.3940   12.8670   -2.3070 O   0  0  0  0  0  0  0  0  0  0  0  0
   -1.0230   10.0580   -8.4700 C   0  0  1  0  0  0  0  0  0  0  0  0
   -0.2030    8.6870   -6.6900 C   0  0  0  0  0  0  0  0  0  0  0  0
    0.1040    9.9260   -9.5260 C   0  0  0  0  0  0  0  0  0  0  0  0
   -1.9660    8.8390   -8.3470 C   0  0  0  0  0  0  0  0  0  0  0  0
   -1.4540    7.9870   -7.1770 C   0  0  0  0  0  0  0  0  0  0  0  0
    0.6440    8.5180   -9.8090 C   0  0  0  0  0  0  0  0  0  0  0  0
    1.5920    8.6610  -10.8990 N   0  0  0  0  0  0  0  0  0  0  0  0
    2.7270    8.0720  -10.8880 C   0  0  0  0  0  0  0  0  0  0  0  0
    3.2340    7.1630   -9.8020 C   0  0  0  0  0  0  0  0  0  0  0  0
    3.7470    8.1330  -11.8230 N   0  0  0  0  0  0  0  0  0  0  0  0
    4.9670    7.6920  -11.2930 N   0  0  0  0  0  0  0  0  0  0  0  0
    4.6970    7.1640  -10.1380 C   0  0  0  0  0  0  0  0  0  0  0  0
    3.8480    9.1840  -12.7770 C   0  0  0  0  0  0  0  0  0  0  0  0
    5.7260    6.6020   -9.2200 C   0  0  0  0  0  0  0  0  0  0  0  0
    2.9480   10.2720  -12.8110 C   0  0  0  0  0  0  0  0  0  0  0  0
    4.8690    9.1840  -13.7410 C   0  0  0  0  0  0  0  0  0  0  0  0
    3.0660   11.3010  -13.7510 C   0  0  0  0  0  0  0  0  0  0  0  0
    4.9900   10.2080  -14.6860 C   0  0  0  0  0  0  0  0  0  0  0  0
    4.0880   11.2690  -14.6910 C   0  0  0  0  0  0  0  0  0  0  0  0
  1  2  1  0
  2  3  1  1
  1  4  1  0
  4  5  2  0
  2  6  1  0
  7  4  1  6
  6  8  2  0
  6  9  1  0
  7 10  1  0
  7 11  1  0
 10 12  1  6
 10 13  1  0
 11 14  1  0
 13 14  1  0
 12 15  1  0
 15 16  1  0
 16 17  2  3
 17 18  1  0
 17 19  1  0
 19 20  1  0
 18 21  1  0
 20 21  2  0
 19 22  1  0
 21 23  1  0
 22 24  2  0
 22 25  1  0
 24 26  1  0
 25 27  2  0
 26 28  2  0
 27 28  1  0
M  END
>  <comRMSD>  (446) 
0.413848

>  <∆∆G>  (446) 
-7.508073

>  <N_constrained_atoms>  (446) 
26.0

>  <LE>  (446) 
-0.268145

>  <ref_pdb>  (446) 
x0104_0

>  <ref_mols>  (446) 
x0727_0_A_α,x0676_0_B_α

>  <%Rank>  (446) 
7.635553

>  <generation_date>  (446) 
nan

>  <method>  (446) 
nan

>  <submitter_email>  (446) 
nan

>  <original SMILES>  (446) 
CC1=NN(c2ccccc2)C(=NCCC2CCCC2C(=O)N[C@@H](C)C(=O)O)C1

>  <ref_url>  (446) 
nan

>  <submitter_name>  (446) 
nan

>  <submitter_institution>  (446) 
nan

$$$$
x0290_0_A_α-x0962_2_B_α
     RDKit          3D

 21 22  0  0  0  0  0  0  0  0999 V2000
   -7.7610   13.8440    0.8950 N   0  0  0  0  0  0  0  0  0  0  0  0
   -8.1330   14.9040   -0.0600 C   0  0  0  0  0  0  0  0  0  0  0  0
   -9.3510   15.7590    0.3420 C   0  0  0  0  0  0  0  0  0  0  0  0
   -6.5540   14.1950    1.6930 C   0  0  0  0  0  0  0  0  0  0  0  0
   -5.3210   14.4360    0.8140 C   0  0  0  0  0  0  0  0  0  0  0  0
   -5.4180   14.4120   -0.4190 O   0  0  0  0  0  0  0  0  0  0  0  0
   -4.1000   14.6680    1.3570 N   0  0  0  0  0  0  0  0  0  0  0  0
  -10.0910   15.4210    1.6480 C   0  0  2  0  0  0  0  0  0  0  0  0
  -11.2030   16.3100    1.8840 N   0  0  0  0  0  0  0  0  0  0  0  0
   -2.8220   14.6360    0.8090 C   0  0  0  0  0  0  0  0  0  0  0  0
   -9.2740   15.2930    2.8810 C   0  0  0  0  0  0  0  0  0  0  0  0
   -1.8130   14.5770    1.7150 N   0  0  0  0  0  0  0  0  0  0  0  0
   -2.5810   14.6600   -0.5520 C   0  0  0  0  0  0  0  0  0  0  0  0
   -9.0920   16.2830    3.8200 N   0  0  0  0  0  0  0  0  0  0  0  0
   -8.5520   14.2300    3.3680 C   0  0  0  0  0  0  0  0  0  0  0  0
   -0.5470   14.5370    1.2430 C   0  0  0  0  0  0  0  0  0  0  0  0
   -1.2650   14.6190   -1.0220 C   0  0  0  0  0  0  0  0  0  0  0  0
   -8.2850   15.7810    4.8020 C   0  0  0  0  0  0  0  0  0  0  0  0
   -7.9490   14.5380    4.5530 N   0  0  0  0  0  0  0  0  0  0  0  0
   -1.0010   14.6390   -2.4980 C   0  0  0  0  0  0  0  0  0  0  0  0
   -0.2250   14.5570   -0.1000 C   0  0  0  0  0  0  0  0  0  0  0  0
  1  2  1  0
  2  3  1  0
  1  4  1  0
  4  5  1  0
  5  6  2  0
  5  7  1  0
  3  8  1  0
  8  9  1  1
  7 10  1  0
  8 11  1  0
 10 12  2  0
 10 13  1  0
 11 14  1  0
 11 15  2  0
 12 16  1  0
 13 17  2  0
 14 18  1  0
 15 19  1  0
 18 19  2  0
 17 20  1  0
 16 21  2  0
 17 21  1  0
M  END
>  <comRMSD>  (447) 
0.418759

>  <∆∆G>  (447) 
-7.116608

>  <N_constrained_atoms>  (447) 
20.0

>  <LE>  (447) 
-0.338886

>  <ref_pdb>  (447) 
x0104_0

>  <ref_mols>  (447) 
x0290_0_A_α,x0962_2_B_α

>  <%Rank>  (447) 
7.652711

>  <generation_date>  (447) 
nan

>  <method>  (447) 
nan

>  <submitter_email>  (447) 
nan

>  <original SMILES>  (447) 
Cc1ccnc(NC(=O)CNCCC(N)c2cnc[nH]2)c1

>  <ref_url>  (447) 
nan

>  <submitter_name>  (447) 
nan

>  <submitter_institution>  (447) 
nan

$$$$
3ew5_A_0_A_α-5CB5_0_P_γ
     RDKit          3D

 19 19  0  0  0  0  0  0  0  0999 V2000
   -0.1570   20.0200   -7.7210 P   0  0  2  0  0  0  0  0  0  0  0  0
   -1.7310   20.3330   -7.5940 O   0  0  0  0  0  0  0  0  0  0  0  0
   -2.2060   21.5830   -8.1070 C   0  0  0  0  0  0  0  0  0  0  0  0
    0.7010   21.2060   -7.9940 O   0  0  0  0  0  0  0  0  0  0  0  0
   -0.0260   18.8750   -8.8440 O   0  0  0  0  0  0  0  0  0  0  0  0
    0.3200   19.1720   -6.4410 O   0  0  0  0  0  0  0  0  0  0  0  0
   -0.4510   18.0930   -5.9230 C   0  0  0  0  0  0  0  0  0  0  0  0
   -3.3970   22.1110   -7.2910 C   0  0  2  0  0  0  0  0  0  0  0  0
    0.4720   17.0000   -5.3650 C   0  0  0  0  0  0  0  0  0  0  0  0
   -4.6970   22.1700   -8.1040 C   0  0  0  0  0  0  0  0  0  0  0  0
   -3.1400   23.4430   -6.8360 O   0  0  0  0  0  0  0  0  0  0  0  0
   -0.3070   15.7870   -4.8190 C   0  0  2  0  0  0  0  0  0  0  0  0
   -5.8160   21.9910   -7.2180 O   0  0  0  0  0  0  0  0  0  0  0  0
   -0.2910   15.8320   -3.3830 O   0  0  0  0  0  0  0  0  0  0  0  0
    0.1420   14.3530   -5.1200 C   0  0  1  0  0  0  0  0  0  0  0  0
    1.5240   14.0690   -5.1460 O   0  0  0  0  0  0  0  0  0  0  0  0
   -0.8680   14.5950   -2.9470 C   0  0  0  0  0  0  0  0  0  0  0  0
   -0.5440   13.5580   -4.0180 C   0  0  1  0  0  0  0  0  0  0  0  0
   -1.6530   12.8610   -4.5390 O   0  0  0  0  0  0  0  0  0  0  0  0
  1  2  1  0
  2  3  1  0
  1  4  2  0
  1  5  1  6
  1  6  1  0
  6  7  1  0
  3  8  1  0
  7  9  1  0
  8 10  1  0
  8 11  1  6
 12  9  1  6
 10 13  1  0
 12 14  1  0
 12 15  1  0
 15 16  1  1
 14 17  1  0
 15 18  1  0
 17 18  1  0
 18 19  1  6
M  END
>  <comRMSD>  (448) 
0.499266

>  <∆∆G>  (448) 
-11.510909

>  <N_constrained_atoms>  (448) 
18.0

>  <LE>  (448) 
-0.605837

>  <ref_pdb>  (448) 
x0104_0

>  <ref_mols>  (448) 


>  <%Rank>  (448) 
7.66987

>  <generation_date>  (448) 
nan

>  <method>  (448) 
nan

>  <submitter_email>  (448) 
nan

>  <original SMILES>  (448) 
O=P(O)(OCCC1OCC(O)C1O)OC[C@@H](O)CO

>  <ref_url>  (448) 
nan

>  <submitter_name>  (448) 
nan

>  <submitter_institution>  (448) 
nan

$$$$
x0727_0_A_α-x0626_0_A_α
     RDKit          3D

 27 28  0  0  0  0  0  0  0  0999 V2000
    0.0230   11.3330   -5.7620 N   0  0  0  0  0  0  0  0  0  0  0  0
    0.7760   12.2950   -4.9700 C   0  0  1  0  0  0  0  0  0  0  0  0
    0.2170   13.6970   -5.1300 C   0  0  0  0  0  0  0  0  0  0  0  0
    0.6240   10.9670   -6.9360 C   0  0  0  0  0  0  0  0  0  0  0  0
    1.5850   11.5690   -7.3380 O   0  0  0  0  0  0  0  0  0  0  0  0
    0.7600   11.8910   -3.5050 C   0  0  0  0  0  0  0  0  0  0  0  0
    0.0280    9.7650   -7.6450 C   0  0  0  0  0  0  0  0  0  0  0  0
    0.1680   10.9300   -3.0190 O   0  0  0  0  0  0  0  0  0  0  0  0
    1.5300   12.7690   -2.8360 O   0  0  0  0  0  0  0  0  0  0  0  0
   -1.2650   10.1620   -8.3720 C   0  0  0  0  0  0  0  0  0  0  0  0
   -0.3510    8.6000   -6.7100 C   0  0  0  0  0  0  0  0  0  0  0  0
    0.8810   13.9500   -2.3660 C   0  0  0  0  0  0  0  0  0  0  0  0
   -2.2880    9.1030   -7.9940 C   0  0  0  0  0  0  0  0  0  0  0  0
   -1.8630    8.6400   -6.6130 C   0  0  0  0  0  0  0  0  0  0  0  0
    1.1840   13.9710   -0.9010 C   0  0  0  0  0  0  0  0  0  0  0  0
    0.5390   15.0360   -0.0470 C   0  0  0  0  0  0  0  0  0  0  0  0
   -0.4030   14.4190    0.9560 C   0  0  0  0  0  0  0  0  0  0  0  0
   -1.7590   14.5820    0.4420 C   0  0  0  0  0  0  0  0  0  0  0  0
   -2.8160   14.5990    1.3050 N   0  0  0  0  0  0  0  0  0  0  0  0
   -2.0760   14.7270   -0.8880 C   0  0  0  0  0  0  0  0  0  0  0  0
   -3.9170   14.7560    0.6260 C   0  0  0  0  0  0  0  0  0  0  0  0
   -3.7560   14.8950   -1.0570 S   0  0  0  0  0  0  0  0  0  0  0  0
   -5.1040   14.7980    1.2630 N   0  0  0  0  0  0  0  0  0  0  0  0
   -6.3500   14.6390    0.7770 C   0  0  0  0  0  0  0  0  0  0  0  0
   -6.4830   14.7340   -0.4500 O   0  0  0  0  0  0  0  0  0  0  0  0
   -7.5320   14.3660    1.6710 C   0  0  0  0  0  0  0  0  0  0  0  0
   -8.8460   14.6670    0.9660 C   0  0  0  0  0  0  0  0  0  0  0  0
  1  2  1  0
  2  3  1  1
  1  4  1  0
  4  5  2  0
  2  6  1  0
  4  7  1  0
  6  8  2  0
  6  9  1  0
  7 10  1  0
  7 11  1  0
  9 12  1  0
 10 13  1  0
 11 14  1  0
 13 14  1  0
 12 15  1  0
 15 16  1  0
 16 17  1  0
 17 18  1  0
 18 19  1  0
 18 20  2  0
 19 21  2  0
 20 22  1  0
 21 22  1  0
 21 23  1  0
 23 24  1  0
 24 25  2  0
 24 26  1  0
 26 27  1  0
M  END
>  <comRMSD>  (449) 
0.313011

>  <∆∆G>  (449) 
-9.816944

>  <N_constrained_atoms>  (449) 
24.0

>  <LE>  (449) 
-0.363591

>  <ref_pdb>  (449) 
x0104_0

>  <ref_mols>  (449) 
x0727_0_A_α,x0626_0_A_α

>  <%Rank>  (449) 
7.687028

>  <generation_date>  (449) 
nan

>  <method>  (449) 
nan

>  <submitter_email>  (449) 
nan

>  <original SMILES>  (449) 
CCC(=O)Nc1nc(CCCCOC(=O)[C@H](C)NC(=O)C2CCCC2)cs1

>  <ref_url>  (449) 
nan

>  <submitter_name>  (449) 
nan

>  <submitter_institution>  (449) 
nan

$$$$
x0910_0_A_α-x0128_0_A_α
     RDKit          3D

 23 25  0  0  0  0  0  0  0  0999 V2000
   -2.6260   14.8150   -1.8790 N   0  0  0  0  0  0  0  0  0  0  0  0
   -1.7720   14.6240   -0.8660 C   0  0  0  0  0  0  0  0  0  0  0  0
   -1.9660   15.0280    0.4310 N   0  0  0  0  0  0  0  0  0  0  0  0
   -0.6220   14.0270   -0.9470 N   0  0  0  0  0  0  0  0  0  0  0  0
   -3.0630   15.7230    1.0220 C   0  0  0  0  0  0  0  0  0  0  0  0
   -0.9290   14.6860    1.2150 N   0  0  0  0  0  0  0  0  0  0  0  0
   -0.1560   14.0840    0.3240 C   0  0  0  0  0  0  0  0  0  0  0  0
   -4.3960   15.3750    0.4960 C   0  0  0  0  0  0  0  0  0  0  0  0
   -4.8670   15.4140   -0.8280 C   0  0  0  0  0  0  0  0  0  0  0  0
   -5.2130   14.9830    1.5040 C   0  0  0  0  0  0  0  0  0  0  0  0
   -6.1940   15.0330   -1.0770 C   0  0  0  0  0  0  0  0  0  0  0  0
   -6.4980   14.6160    1.2950 C   0  0  0  0  0  0  0  0  0  0  0  0
   -7.2590   14.2460    2.3940 N   0  0  0  0  0  0  0  0  0  0  0  0
   -7.0120   14.6310   -0.0080 C   0  0  0  0  0  0  0  0  0  0  0  0
   -8.0940   15.1080    3.0210 C   0  0  0  0  0  0  0  0  0  0  0  0
   -9.0620   15.6690    2.5160 O   0  0  0  0  0  0  0  0  0  0  0  0
   -7.7860   15.3640    4.3240 N   0  0  0  0  0  0  0  0  0  0  0  0
   -8.5060   16.0720    5.3050 C   0  0  0  0  0  0  0  0  0  0  0  0
   -9.1740   17.2270    4.9080 C   0  0  0  0  0  0  0  0  0  0  0  0
   -8.6130   15.7120    6.6480 C   0  0  0  0  0  0  0  0  0  0  0  0
   -9.9150   18.0140    5.7200 N   0  0  0  0  0  0  0  0  0  0  0  0
   -9.3700   16.5080    7.5140 C   0  0  0  0  0  0  0  0  0  0  0  0
   -9.9950   17.6360    7.0080 C   0  0  0  0  0  0  0  0  0  0  0  0
  1  2  1  0
  2  3  1  0
  2  4  2  0
  3  5  1  0
  3  6  1  0
  4  7  1  0
  6  7  2  0
  5  8  1  0
  8  9  2  0
  8 10  1  0
  9 11  1  0
 10 12  2  0
 12 13  1  0
 11 14  2  0
 12 14  1  0
 13 15  1  0
 15 16  2  0
 15 17  1  0
 17 18  1  0
 18 19  2  0
 18 20  1  0
 19 21  1  0
 20 22  2  0
 21 23  2  0
 22 23  1  0
M  END
>  <comRMSD>  (450) 
0.47727

>  <∆∆G>  (450) 
-8.262115

>  <N_constrained_atoms>  (450) 
22.0

>  <LE>  (450) 
-0.359222

>  <ref_pdb>  (450) 
x0104_0

>  <ref_mols>  (450) 
x0910_0_A_α,x0128_0_A_α

>  <%Rank>  (450) 
7.704187

>  <generation_date>  (450) 
nan

>  <method>  (450) 
nan

>  <submitter_email>  (450) 
nan

>  <original SMILES>  (450) 
Nc1ncnn1Cc1cccc(NC(=O)Nc2cccnc2)c1

>  <ref_url>  (450) 
nan

>  <submitter_name>  (450) 
nan

>  <submitter_institution>  (450) 
nan

$$$$
5l9k_B_0_B_γ-5fud_B_0_B_α
     RDKit          3D

 21 22  0  0  0  0  0  0  0  0999 V2000
   -2.4220   13.0930   -4.6350 O   0  0  0  0  0  0  0  0  0  0  0  0
   -1.8540   14.3860   -4.4610 C   0  0  1  0  0  0  0  0  0  0  0  0
   -1.5440   14.7280   -3.0160 C   0  0  0  0  0  0  0  0  0  0  0  0
   -0.4420   14.3760   -4.9910 C   0  0  2  0  0  0  0  0  0  0  0  0
    0.3280   13.3230   -4.4150 O   0  0  0  0  0  0  0  0  0  0  0  0
   -0.4470   15.6760   -3.1050 O   0  0  0  0  0  0  0  0  0  0  0  0
   -0.0350   15.7550   -4.4940 C   0  0  2  0  0  0  0  0  0  0  0  0
   -0.7710   16.9410   -5.1570 C   0  0  0  0  0  0  0  0  0  0  0  0
    0.0650   18.0350   -5.8260 C   0  0  0  0  0  0  0  0  0  0  0  0
   -0.8590   19.0370   -6.4230 N   0  0  0  0  0  0  0  0  0  0  0  0
   -0.3980   19.7500   -7.9010 S   0  0  1  0  0  0  0  0  0  0  0  0
    0.6550   20.7160   -7.6850 O   0  0  0  0  0  0  0  0  0  0  0  0
   -0.2170   18.6390   -8.8360 O   0  0  0  0  0  0  0  0  0  0  0  0
   -1.9100   20.6380   -8.2660 C   0  0  0  0  0  0  0  0  0  0  0  0
   -2.0900   22.0590   -7.7980 C   0  0  0  0  0  0  0  0  0  0  0  0
   -3.5320   22.4180   -7.8110 N   0  0  0  0  0  0  0  0  0  0  0  0
   -4.1070   22.6170   -9.1520 C   0  0  0  0  0  0  0  0  0  0  0  0
   -3.8840   23.5650   -6.9820 C   0  0  0  0  0  0  0  0  0  0  0  0
   -5.6390   22.7560   -9.0740 C   0  0  0  0  0  0  0  0  0  0  0  0
   -5.3880   23.7810   -6.9140 C   0  0  0  0  0  0  0  0  0  0  0  0
   -6.0730   23.7860   -8.1750 O   0  0  0  0  0  0  0  0  0  0  0  0
  2  1  1  1
  2  3  1  0
  2  4  1  0
  4  5  1  1
  3  6  1  0
  4  7  1  0
  6  7  1  0
  7  8  1  6
  8  9  1  0
  9 10  1  0
 10 11  2  0
 11 12  2  0
 11 13  1  6
 11 14  1  0
 14 15  1  0
 15 16  1  0
 16 17  1  0
 16 18  1  0
 17 19  1  0
 18 20  1  0
 19 21  1  0
 20 21  1  0
M  CHG  1  13  -1
M  END
>  <comRMSD>  (451) 
0.619306

>  <∆∆G>  (451) 
-15.457911

>  <N_constrained_atoms>  (451) 
20.0

>  <LE>  (451) 
-0.736091

>  <ref_pdb>  (451) 
x0104_0

>  <ref_mols>  (451) 


>  <%Rank>  (451) 
7.721345

>  <generation_date>  (451) 
nan

>  <method>  (451) 
nan

>  <submitter_email>  (451) 
nan

>  <original SMILES>  (451) 
O=S([O-])(CCN1CCOCC1)=NCCC1OCC(O)C1O

>  <ref_url>  (451) 
nan

>  <submitter_name>  (451) 
nan

>  <submitter_institution>  (451) 
nan

$$$$
1HJZ_0_B_α-x0380_0_B_α
     RDKit          3D

 28 29  0  0  0  0  0  0  0  0999 V2000
    1.2340   21.0240   -7.5260 O   0  0  0  0  0  0  0  0  0  0  0  0
   -0.0770   20.1060   -7.6730 S   0  0  0  0  0  0  0  0  0  0  0  0
    0.1570   18.9010   -8.7020 O   0  0  0  0  0  0  0  0  0  0  0  0
   -0.5780   19.5550   -6.2640 O   0  0  0  0  0  0  0  0  0  0  0  0
   -1.3630   21.1590   -8.3250 C   0  0  0  0  0  0  0  0  0  0  0  0
   -2.1880   21.8600   -7.2620 C   0  0  0  0  0  0  0  0  0  0  0  0
   -3.5460   22.2990   -7.6240 N   0  0  0  0  0  0  0  0  0  0  0  0
   -3.5670   22.6850   -9.0290 C   0  0  0  0  0  0  0  0  0  0  0  0
   -3.9830   23.4700   -6.8440 C   0  0  0  0  0  0  0  0  0  0  0  0
   -4.9550   23.1340   -9.4980 C   0  0  0  0  0  0  0  0  0  0  0  0
   -5.3570   24.0090   -7.3340 C   0  0  0  0  0  0  0  0  0  0  0  0
   -5.3690   24.3430   -8.7850 N   0  0  0  0  0  0  0  0  0  0  0  0
   -6.6630   24.7880   -9.3440 C   0  0  0  0  0  0  0  0  0  0  0  0
   -6.8350   26.3080   -9.5340 C   0  0  0  0  0  0  0  0  0  0  0  0
   -6.9280   26.9100  -10.9440 C   0  0  0  0  0  0  0  0  0  0  0  0
   -7.2160   28.4310  -10.9750 C   0  0  0  0  0  0  0  0  0  0  0  0
   -7.0140   28.9840  -12.3550 C   0  0  0  0  0  0  0  0  0  0  0  0
   -5.7530   29.3700  -12.8150 C   0  0  0  0  0  0  0  0  0  0  0  0
   -8.1180   29.1070  -13.2030 C   0  0  0  0  0  0  0  0  0  0  0  0
   -4.5900   29.2650  -11.9100 C   0  0  0  0  0  0  0  0  0  0  0  0
   -7.9590   29.5970  -14.4910 C   0  0  0  0  0  0  0  0  0  0  0  0
   -5.5750   29.8510  -14.1180 C   0  0  0  0  0  0  0  0  0  0  0  0
   -4.2540   30.1820  -14.4970 N   0  0  0  0  0  0  0  0  0  0  0  0
   -6.6900   29.9630  -14.9520 C   0  0  0  0  0  0  0  0  0  0  0  0
   -3.7790   31.2300  -15.2440 C   0  0  0  0  0  0  0  0  0  0  0  0
   -4.2880   32.3310  -15.3580 O   0  0  0  0  0  0  0  0  0  0  0  0
   -2.4730   30.9240  -15.9890 C   0  0  0  0  0  0  0  0  0  0  0  0
   -2.3990   31.5300  -17.3280 N   0  0  0  0  0  0  0  0  0  0  0  0
  2  1  1  0
  2  3  1  0
  2  4  1  0
  2  5  1  0
  5  6  1  0
  6  7  1  0
  7  8  1  0
  7  9  1  0
  8 10  1  0
  9 11  1  0
 10 12  1  0
 11 12  1  0
 12 13  1  0
 13 14  1  0
 14 15  1  0
 15 16  1  0
 16 17  1  0
 17 18  2  0
 17 19  1  0
 18 20  1  0
 19 21  2  0
 18 22  1  0
 22 23  1  0
 21 24  1  0
 22 24  2  0
 23 25  1  0
 25 26  2  0
 25 27  1  0
 27 28  1  0
M  END
>  <comRMSD>  (452) 
0.372337

>  <∆∆G>  (452) 
-11.902066

>  <N_constrained_atoms>  (452) 
25.0

>  <LE>  (452) 
-0.425074

>  <ref_pdb>  (452) 
x0104_0

>  <ref_mols>  (452) 
x0380_0_B_α

>  <%Rank>  (452) 
7.738504

>  <generation_date>  (452) 
nan

>  <method>  (452) 
nan

>  <submitter_email>  (452) 
nan

>  <original SMILES>  (452) 
Cc1c(CCCCN2CCN(CCS(O)(O)O)CC2)cccc1NC(=O)CN

>  <ref_url>  (452) 
nan

>  <submitter_name>  (452) 
nan

>  <submitter_institution>  (452) 
nan

$$$$
x0849_0_A_α-x0864_0_A_α
     RDKit          3D

 24 26  0  0  0  0  0  0  0  0999 V2000
   -3.8190   15.2210   -2.8100 Br  0  0  0  0  0  0  0  0  0  0  0  0
   -3.6560   15.1840   -0.9200 C   0  0  0  0  0  0  0  0  0  0  0  0
   -2.4610   14.8000   -0.3140 C   0  0  0  0  0  0  0  0  0  0  0  0
   -4.7460   15.5370   -0.1540 C   0  0  0  0  0  0  0  0  0  0  0  0
   -2.4070   14.7870    1.0790 C   0  0  0  0  0  0  0  0  0  0  0  0
   -4.5780   15.4810    1.2070 C   0  0  0  0  0  0  0  0  0  0  0  0
   -1.3230   14.4240   -1.0250 C   0  0  0  0  0  0  0  0  0  0  0  0
   -3.4450   15.1190    1.8040 N   0  0  0  0  0  0  0  0  0  0  0  0
   -1.3230   14.4410    1.7340 N   0  0  0  0  0  0  0  0  0  0  0  0
   -0.1890   14.0440   -0.3620 C   0  0  0  0  0  0  0  0  0  0  0  0
    0.9980   13.6160   -1.1640 C   0  0  0  0  0  0  0  0  0  0  0  0
   -0.2490   14.0750    1.0280 C   0  0  0  0  0  0  0  0  0  0  0  0
    0.8340   13.7790   -2.5880 N   0  0  0  0  0  0  0  0  0  0  0  0
    0.6800   12.7200   -3.3040 C   0  0  0  0  0  0  0  0  0  0  0  0
    0.5010   12.8870   -4.7930 C   0  0  0  0  0  0  0  0  0  0  0  0
    0.6650   11.4440   -2.8280 O   0  0  0  0  0  0  0  0  0  0  0  0
   -0.0970   11.7080   -5.3950 N   0  0  0  0  0  0  0  0  0  0  0  0
   -1.2840   11.1860   -4.9210 C   0  0  0  0  0  0  0  0  0  0  0  0
    0.5050   11.2580   -6.5480 C   0  0  0  0  0  0  0  0  0  0  0  0
    1.5390   11.7470   -6.9770 O   0  0  0  0  0  0  0  0  0  0  0  0
   -1.8790   10.1700   -5.5630 C   0  0  0  0  0  0  0  0  0  0  0  0
   -0.1400   10.1280   -7.2450 C   0  0  0  0  0  0  0  0  0  0  0  0
   -1.2770    9.6210   -6.7560 C   0  0  0  0  0  0  0  0  0  0  0  0
   -2.1370    8.1890   -7.5860 Br  0  0  0  0  0  0  0  0  0  0  0  0
  1  2  1  0
  2  3  2  0
  2  4  1  0
  3  5  1  0
  4  6  2  0
  3  7  1  0
  5  8  2  0
  6  8  1  0
  5  9  1  0
  7 10  2  0
 10 11  1  0
  9 12  2  0
 10 12  1  0
 11 13  1  0
 13 14  2  3
 14 15  1  0
 14 16  1  0
 15 17  1  0
 17 18  1  0
 17 19  1  0
 19 20  2  0
 18 21  2  0
 19 22  1  0
 21 23  1  0
 22 23  2  0
 23 24  1  0
M  END
>  <comRMSD>  (453) 
0.454637

>  <∆∆G>  (453) 
-6.455706

>  <N_constrained_atoms>  (453) 
23.0

>  <LE>  (453) 
-0.268988

>  <ref_pdb>  (453) 
x0104_0

>  <ref_mols>  (453) 
x0849_0_A_α,x0864_0_A_α

>  <%Rank>  (453) 
7.755662

>  <generation_date>  (453) 
nan

>  <method>  (453) 
nan

>  <submitter_email>  (453) 
nan

>  <original SMILES>  (453) 
O=c1cc(Br)ccn1CC(O)=NCc1cnc2nccc(Br)c2c1

>  <ref_url>  (453) 
nan

>  <submitter_name>  (453) 
nan

>  <submitter_institution>  (453) 
nan

$$$$
x0438_0_A_α-x0855_0_A_α
     RDKit          3D

 27 29  0  0  0  0  0  0  0  0999 V2000
   -8.1230   15.5010    3.8250 C   0  0  0  0  0  0  0  0  0  0  0  0
   -9.3540   15.3380    2.5430 S   0  0  0  0  0  0  0  0  0  0  0  0
  -10.5500   14.7980    3.1670 O   0  0  0  0  0  0  0  0  0  0  0  0
   -8.7470   14.0830    1.4280 C   0  0  0  0  0  0  0  0  0  0  0  0
   -9.4650   16.5710    1.7950 O   0  0  0  0  0  0  0  0  0  0  0  0
   -7.3690   14.3450    0.9280 C   0  0  0  0  0  0  0  0  0  0  0  0
   -7.0900   14.8310   -0.3360 N   0  0  0  0  0  0  0  0  0  0  0  0
   -6.2560   14.1460    1.5940 N   0  0  0  0  0  0  0  0  0  0  0  0
   -5.2280   14.4900    0.7510 C   0  0  0  0  0  0  0  0  0  0  0  0
   -5.7240   14.9260   -0.4670 C   0  0  0  0  0  0  0  0  0  0  0  0
   -4.8990   15.3390   -1.5130 C   0  0  0  0  0  0  0  0  0  0  0  0
   -3.8430   14.4450    0.9710 C   0  0  0  0  0  0  0  0  0  0  0  0
   -3.5130   15.2840   -1.2870 C   0  0  0  0  0  0  0  0  0  0  0  0
   -2.9710   14.8380   -0.0570 C   0  0  0  0  0  0  0  0  0  0  0  0
   -1.4650   14.7580    0.1950 C   0  0  0  0  0  0  0  0  0  0  0  0
   -0.6380   14.6580   -1.0950 C   0  0  0  0  0  0  0  0  0  0  0  0
    0.1600   13.3600   -1.1510 C   0  0  0  0  0  0  0  0  0  0  0  0
    0.9840   13.2750   -2.3370 O   0  0  0  0  0  0  0  0  0  0  0  0
    0.7700   12.1930   -3.1370 C   0  0  0  0  0  0  0  0  0  0  0  0
    0.7050   11.0370   -2.7310 O   0  0  0  0  0  0  0  0  0  0  0  0
    0.5980   12.5700   -4.5810 C   0  0  0  0  0  0  0  0  0  0  0  0
   -0.4260   11.7150   -5.1260 N   0  0  0  0  0  0  0  0  0  0  0  0
   -0.3000   10.7830   -6.1150 C   0  0  0  0  0  0  0  0  0  0  0  0
   -1.6800   11.7990   -4.6290 N   0  0  0  0  0  0  0  0  0  0  0  0
   -1.5410   10.2290   -6.2500 C   0  0  0  0  0  0  0  0  0  0  0  0
   -2.3600   10.8830   -5.3220 C   0  0  0  0  0  0  0  0  0  0  0  0
   -2.0860    8.8770   -7.4110 Br  0  0  0  0  0  0  0  0  0  0  0  0
  2  1  1  0
  2  3  2  0
  2  4  1  0
  2  5  2  0
  4  6  1  0
  6  7  1  0
  6  8  2  0
  8  9  1  0
  7 10  1  0
  9 10  2  0
 10 11  1  0
  9 12  1  0
 11 13  2  0
 12 14  2  0
 13 14  1  0
 14 15  1  0
 15 16  1  0
 16 17  1  0
 17 18  1  0
 18 19  1  0
 19 20  2  0
 19 21  1  0
 21 22  1  0
 22 23  1  0
 22 24  1  0
 23 25  2  0
 24 26  2  0
 25 26  1  0
 25 27  1  0
M  END
>  <comRMSD>  (454) 
0.267281

>  <∆∆G>  (454) 
-7.281006

>  <N_constrained_atoms>  (454) 
24.0

>  <LE>  (454) 
-0.269667

>  <ref_pdb>  (454) 
x0104_0

>  <ref_mols>  (454) 
x0438_0_A_α,x0855_0_A_α

>  <%Rank>  (454) 
7.772821

>  <generation_date>  (454) 
nan

>  <method>  (454) 
nan

>  <submitter_email>  (454) 
nan

>  <original SMILES>  (454) 
CS(=O)(=O)Cc1nc2cc(CCCOC(=O)Cn3cc(Br)cn3)ccc2[nH]1

>  <ref_url>  (454) 
nan

>  <submitter_name>  (454) 
nan

>  <submitter_institution>  (454) 
nan

$$$$
x0864_0_A_α-x0724_0_A_α
     RDKit          3D

 29 31  0  0  0  0  0  0  0  0999 V2000
    1.4660   11.8200   -6.9320 O   0  0  0  0  0  0  0  0  0  0  0  0
    0.4450   11.2830   -6.5210 C   0  0  0  0  0  0  0  0  0  0  0  0
   -0.1810   11.6750   -5.3560 N   0  0  0  0  0  0  0  0  0  0  0  0
   -0.1590   10.1540   -7.2560 C   0  0  0  0  0  0  0  0  0  0  0  0
    0.5350   12.6350   -4.5360 C   0  0  0  0  0  0  0  0  0  0  0  0
   -1.3610   11.1040   -4.9140 C   0  0  0  0  0  0  0  0  0  0  0  0
   -1.2870    9.5980   -6.7940 C   0  0  0  0  0  0  0  0  0  0  0  0
    0.7350   12.0850   -3.1340 C   0  0  0  0  0  0  0  0  0  0  0  0
   -2.0960    8.1650   -7.6660 Br  0  0  0  0  0  0  0  0  0  0  0  0
   -1.9170   10.0950   -5.5930 C   0  0  0  0  0  0  0  0  0  0  0  0
    0.5660   10.7590   -2.9490 O   0  0  0  0  0  0  0  0  0  0  0  0
    1.0410   12.8890   -2.1970 N   0  0  0  0  0  0  0  0  0  0  0  0
    1.1520   14.2830   -2.6070 C   0  0  0  0  0  0  0  0  0  0  0  0
   -0.2520   14.8730   -2.4970 C   0  0  0  0  0  0  0  0  0  0  0  0
   -0.7360   14.6690   -1.0630 C   0  0  0  0  0  0  0  0  0  0  0  0
   -2.2330   14.6700   -0.7790 C   0  0  0  0  0  0  0  0  0  0  0  0
   -2.5350   14.7860    0.5720 C   0  0  0  0  0  0  0  0  0  0  0  0
   -3.2970   14.5650   -1.7090 C   0  0  0  0  0  0  0  0  0  0  0  0
   -3.8330   14.7960    1.0290 C   0  0  0  0  0  0  0  0  0  0  0  0
   -4.6360   14.5740   -1.2420 C   0  0  0  0  0  0  0  0  0  0  0  0
   -4.8960   14.6890    0.1430 C   0  0  0  0  0  0  0  0  0  0  0  0
   -6.1980   14.7030    0.7170 N   0  0  0  0  0  0  0  0  0  0  0  0
   -7.3540   14.5980    0.0090 N   0  0  0  0  0  0  0  0  0  0  0  0
   -6.4550   14.8300    2.0670 C   0  0  0  0  0  0  0  0  0  0  0  0
   -7.8170   14.8220    2.2500 C   0  0  0  0  0  0  0  0  0  0  0  0
   -8.3170   14.6710    0.9370 C   0  0  0  0  0  0  0  0  0  0  0  0
   -8.5720   14.9500    3.5260 C   0  0  0  0  0  0  0  0  0  0  0  0
   -8.2890   13.7890    4.3620 N   0  0  0  0  0  0  0  0  0  0  0  0
   -8.7270   14.0050    5.7350 C   0  0  0  0  0  0  0  0  0  0  0  0
  1  2  2  0
  2  3  1  0
  2  4  1  0
  3  5  1  0
  3  6  1  0
  4  7  2  0
  5  8  1  0
  7  9  1  0
  6 10  2  0
  7 10  1  0
  8 11  1  0
  8 12  2  3
 12 13  1  0
 13 14  1  0
 14 15  1  0
 15 16  1  0
 16 17  2  0
 16 18  1  0
 17 19  1  0
 18 20  2  0
 19 21  2  0
 20 21  1  0
 21 22  1  0
 22 23  1  0
 22 24  1  0
 24 25  2  0
 23 26  2  0
 25 26  1  0
 25 27  1  0
 27 28  1  0
 28 29  1  0
M  END
>  <comRMSD>  (455) 
0.319422

>  <∆∆G>  (455) 
-7.726797

>  <N_constrained_atoms>  (455) 
26.0

>  <LE>  (455) 
-0.266441

>  <ref_pdb>  (455) 
x0104_0

>  <ref_mols>  (455) 
x0864_0_A_α,x0724_0_A_α

>  <%Rank>  (455) 
7.789979

>  <generation_date>  (455) 
nan

>  <method>  (455) 
nan

>  <submitter_email>  (455) 
nan

>  <original SMILES>  (455) 
CNCc1cnn(-c2ccc(CCCN=C(O)Cn3ccc(Br)cc3=O)cc2)c1

>  <ref_url>  (455) 
nan

>  <submitter_name>  (455) 
nan

>  <submitter_institution>  (455) 
nan

$$$$
x0128_0_A_α-x0910_0_A_α
     RDKit          3D

 23 25  0  0  0  0  0  0  0  0999 V2000
   -6.6050   14.7240    2.4800 N   0  0  0  0  0  0  0  0  0  0  0  0
   -7.7940   15.1720    3.0340 C   0  0  0  0  0  0  0  0  0  0  0  0
   -8.8070   15.4590    2.4010 O   0  0  0  0  0  0  0  0  0  0  0  0
   -6.2700   14.7680    1.1100 C   0  0  0  0  0  0  0  0  0  0  0  0
   -7.6760   15.2620    4.4010 N   0  0  0  0  0  0  0  0  0  0  0  0
   -7.3550   14.5320    0.2700 C   0  0  0  0  0  0  0  0  0  0  0  0
   -5.0110   15.0280    0.5320 C   0  0  0  0  0  0  0  0  0  0  0  0
   -7.2210   14.5530   -1.1090 C   0  0  0  0  0  0  0  0  0  0  0  0
   -4.8960   15.0440   -0.8860 C   0  0  0  0  0  0  0  0  0  0  0  0
   -8.4610   16.0620    5.2650 C   0  0  0  0  0  0  0  0  0  0  0  0
   -3.6510   15.3130   -1.6480 C   0  0  0  0  0  0  0  0  0  0  0  0
   -5.9990   14.8080   -1.6750 C   0  0  0  0  0  0  0  0  0  0  0  0
   -9.1450   17.2180    4.8790 C   0  0  0  0  0  0  0  0  0  0  0  0
   -8.5790   15.6870    6.6050 C   0  0  0  0  0  0  0  0  0  0  0  0
   -2.6180   14.3370   -1.4340 N   0  0  0  0  0  0  0  0  0  0  0  0
   -9.9020   17.9780    5.7090 N   0  0  0  0  0  0  0  0  0  0  0  0
   -9.3500   16.4520    7.4830 C   0  0  0  0  0  0  0  0  0  0  0  0
   -9.9880   17.5820    6.9900 C   0  0  0  0  0  0  0  0  0  0  0  0
   -1.7000   14.5760   -0.5060 C   0  0  0  0  0  0  0  0  0  0  0  0
   -1.9680   14.5550    0.8290 N   0  0  0  0  0  0  0  0  0  0  0  0
   -0.4410   14.8680   -0.6980 N   0  0  0  0  0  0  0  0  0  0  0  0
   -0.8760   14.8370    1.5360 N   0  0  0  0  0  0  0  0  0  0  0  0
    0.0200   15.0250    0.5710 C   0  0  0  0  0  0  0  0  0  0  0  0
  1  2  1  0
  2  3  2  0
  1  4  1  0
  2  5  1  0
  4  6  2  0
  4  7  1  0
  6  8  1  0
  7  9  2  0
  5 10  1  0
  9 11  1  0
  8 12  2  0
  9 12  1  0
 10 13  2  0
 10 14  1  0
 11 15  1  0
 13 16  1  0
 14 17  2  0
 16 18  2  0
 17 18  1  0
 15 19  1  0
 19 20  1  0
 19 21  2  0
 20 22  1  0
 21 23  1  0
 22 23  2  0
M  END
>  <comRMSD>  (456) 
0.459469

>  <∆∆G>  (456) 
-7.381438

>  <N_constrained_atoms>  (456) 
22.0

>  <LE>  (456) 
-0.320932

>  <ref_pdb>  (456) 
x0104_0

>  <ref_mols>  (456) 
x0128_0_A_α,x0910_0_A_α

>  <%Rank>  (456) 
7.807138

>  <generation_date>  (456) 
nan

>  <method>  (456) 
nan

>  <submitter_email>  (456) 
nan

>  <original SMILES>  (456) 
O=C(Nc1cccnc1)Nc1cccc(CNc2ncn[nH]2)c1

>  <ref_url>  (456) 
nan

>  <submitter_name>  (456) 
nan

>  <submitter_institution>  (456) 
nan

$$$$
2fav_B_0_B_γ-5cms_F_6_F_β
     RDKit          3D

 18 18  0  0  0  0  0  0  0  0999 V2000
   -0.3590   12.6350   -4.7130 O   0  0  0  0  0  0  0  0  0  0  0  0
   -0.2670   14.0520   -4.5070 C   0  0  1  0  0  0  0  0  0  0  0  0
   -0.2970   14.3670   -3.0150 C   0  0  0  0  0  0  0  0  0  0  0  0
    1.1060   14.5510   -4.9320 C   0  0  2  0  0  0  0  0  0  0  0  0
    2.0840   13.5210   -4.8170 O   0  0  0  0  0  0  0  0  0  0  0  0
    0.7940   15.2650   -2.7180 O   0  0  0  0  0  0  0  0  0  0  0  0
    1.3250   15.7190   -3.9760 C   0  0  2  0  0  0  0  0  0  0  0  0
    0.7340   17.0970   -4.3000 C   0  0  0  0  0  0  0  0  0  0  0  0
    0.9210   17.5950   -5.7130 C   0  0  0  0  0  0  0  0  0  0  0  0
   -0.2850   17.3250   -6.3850 O   0  0  0  0  0  0  0  0  0  0  0  0
   -1.5900   18.2030   -6.1980 P   0  0  1  0  0  0  0  0  0  0  0  0
   -1.1340   19.6660   -6.5390 O   0  0  0  0  0  0  0  0  0  0  0  0
   -2.7850   17.6840   -6.8790 O   0  0  0  0  0  0  0  0  0  0  0  0
   -1.8000   18.2480   -4.6240 O   0  0  0  0  0  0  0  0  0  0  0  0
   -0.3800   20.0410   -7.8690 P   0  0  0  0  0  0  0  0  0  0  0  0
   -1.5860   20.6540   -8.7000 O   0  0  0  0  0  0  0  0  0  0  0  0
    0.7860   20.9560   -7.7690 O   0  0  0  0  0  0  0  0  0  0  0  0
   -0.1240   18.7010   -8.7230 O   0  0  0  0  0  0  0  0  0  0  0  0
  2  1  1  1
  2  3  1  0
  2  4  1  0
  4  5  1  1
  3  6  1  0
  4  7  1  0
  6  7  1  0
  7  8  1  6
  8  9  1  0
  9 10  1  0
 10 11  1  0
 11 12  1  0
 11 13  2  0
 11 14  1  1
 12 15  1  0
 15 16  1  0
 15 17  2  0
 15 18  1  0
M  END
>  <comRMSD>  (457) 
0.520431

>  <∆∆G>  (457) 
-12.645485

>  <N_constrained_atoms>  (457) 
17.0

>  <LE>  (457) 
-0.702527

>  <ref_pdb>  (457) 
x0104_0

>  <ref_mols>  (457) 


>  <%Rank>  (457) 
7.824296

>  <generation_date>  (457) 
nan

>  <method>  (457) 
nan

>  <submitter_email>  (457) 
nan

>  <original SMILES>  (457) 
O=P(O)(O)OP(=O)(O)OCCC1OCC(O)C1O

>  <ref_url>  (457) 
nan

>  <submitter_name>  (457) 
nan

>  <submitter_institution>  (457) 
nan

$$$$
x0574_0_A_α-x0962_0_A_α
     RDKit          3D

 13 14  0  0  0  0  0  0  0  0999 V2000
    0.1620   14.0490    2.1470 N   0  0  0  0  0  0  0  0  0  0  0  0
   -0.9040   14.2980    1.4180 C   0  0  0  0  0  0  0  0  0  0  0  0
   -2.0440   14.3270    1.9870 N   0  0  0  0  0  0  0  0  0  0  0  0
   -0.8840   14.5830   -0.2620 S   0  0  0  0  0  0  0  0  0  0  0  0
   -3.0250   14.5640    1.0850 C   0  0  0  0  0  0  0  0  0  0  0  0
   -2.6140   14.7380   -0.2220 C   0  0  0  0  0  0  0  0  0  0  0  0
   -4.3690   14.6290    1.4130 C   0  0  0  0  0  0  0  0  0  0  0  0
   -3.5360   14.9890   -1.2460 C   0  0  0  0  0  0  0  0  0  0  0  0
   -5.3130   14.8620    0.4450 C   0  0  0  0  0  0  0  0  0  0  0  0
   -4.9010   15.0460   -0.8810 C   0  0  0  0  0  0  0  0  0  0  0  0
   -3.1190   15.1680   -2.5780 N   0  0  0  0  0  0  0  0  0  0  0  0
   -6.6510   14.9190    0.7180 O   0  0  0  0  0  0  0  0  0  0  0  0
   -7.0050   14.5750    2.0700 C   0  0  0  0  0  0  0  0  0  0  0  0
  1  2  1  0
  2  3  2  0
  2  4  1  0
  3  5  1  0
  4  6  1  0
  5  6  2  0
  5  7  1  0
  6  8  1  0
  7  9  2  0
  8 10  2  0
  9 10  1  0
  8 11  1  0
  9 12  1  0
 12 13  1  0
M  END
>  <comRMSD>  (458) 
0.56103

>  <∆∆G>  (458) 
-8.906984

>  <N_constrained_atoms>  (458) 
13.0

>  <LE>  (458) 
-0.685153

>  <ref_pdb>  (458) 
x0104_0

>  <ref_mols>  (458) 
x0574_0_A_α,x0962_0_A_α

>  <%Rank>  (458) 
7.841455

>  <generation_date>  (458) 
nan

>  <method>  (458) 
nan

>  <submitter_email>  (458) 
nan

>  <original SMILES>  (458) 
COc1cc(N)c2sc(N)nc2c1

>  <ref_url>  (458) 
nan

>  <submitter_name>  (458) 
nan

>  <submitter_institution>  (458) 
nan

$$$$
x0962_2_B_α-x0290_0_A_α
     RDKit          3D

 21 22  0  0  0  0  0  0  0  0999 V2000
  -11.1810   16.2920    1.8580 N   0  0  0  0  0  0  0  0  0  0  0  0
  -10.0850   15.3850    1.6110 C   0  0  1  0  0  0  0  0  0  0  0  0
   -9.3250   15.8010    0.3350 C   0  0  0  0  0  0  0  0  0  0  0  0
   -9.2660   15.2840    2.8500 C   0  0  0  0  0  0  0  0  0  0  0  0
   -8.1180   14.9160   -0.0360 C   0  0  0  0  0  0  0  0  0  0  0  0
   -9.1050   16.2890    3.7820 N   0  0  0  0  0  0  0  0  0  0  0  0
   -8.5220   14.2400    3.3540 C   0  0  0  0  0  0  0  0  0  0  0  0
   -7.7800   13.8930    0.9650 N   0  0  0  0  0  0  0  0  0  0  0  0
   -8.2910   15.8110    4.7730 C   0  0  0  0  0  0  0  0  0  0  0  0
   -7.9320   14.5730    4.5390 N   0  0  0  0  0  0  0  0  0  0  0  0
   -6.4750   14.1350    1.6470 C   0  0  0  0  0  0  0  0  0  0  0  0
   -5.3010   14.4210    0.6880 C   0  0  0  0  0  0  0  0  0  0  0  0
   -5.4590   14.4150   -0.5290 O   0  0  0  0  0  0  0  0  0  0  0  0
   -4.1190   14.6610    1.3540 N   0  0  0  0  0  0  0  0  0  0  0  0
   -2.8380   14.6310    0.8260 C   0  0  0  0  0  0  0  0  0  0  0  0
   -1.8240   14.5660    1.7300 N   0  0  0  0  0  0  0  0  0  0  0  0
   -2.6110   14.6590   -0.5400 C   0  0  0  0  0  0  0  0  0  0  0  0
   -0.5640   14.5300    1.2420 C   0  0  0  0  0  0  0  0  0  0  0  0
   -1.3020   14.6200   -1.0200 C   0  0  0  0  0  0  0  0  0  0  0  0
   -1.0500   14.6470   -2.4960 C   0  0  0  0  0  0  0  0  0  0  0  0
   -0.2540   14.5540   -0.1050 C   0  0  0  0  0  0  0  0  0  0  0  0
  2  1  1  1
  2  3  1  0
  2  4  1  0
  3  5  1  0
  4  6  1  0
  4  7  2  0
  5  8  1  0
  6  9  1  0
  7 10  1  0
  9 10  2  0
  8 11  1  0
 11 12  1  0
 12 13  2  0
 12 14  1  0
 14 15  1  0
 15 16  2  0
 15 17  1  0
 16 18  1  0
 17 19  2  0
 19 20  1  0
 18 21  2  0
 19 21  1  0
M  END
>  <comRMSD>  (459) 
0.42287

>  <∆∆G>  (459) 
-7.152566

>  <N_constrained_atoms>  (459) 
20.0

>  <LE>  (459) 
-0.340598

>  <ref_pdb>  (459) 
x0104_0

>  <ref_mols>  (459) 
x0962_2_B_α,x0290_0_A_α

>  <%Rank>  (459) 
7.858614

>  <generation_date>  (459) 
nan

>  <method>  (459) 
nan

>  <submitter_email>  (459) 
nan

>  <original SMILES>  (459) 
Cc1ccnc(NC(=O)CNCCC(N)c2cnc[nH]2)c1

>  <ref_url>  (459) 
nan

>  <submitter_name>  (459) 
nan

>  <submitter_institution>  (459) 
nan

$$$$
x0592_0_A_α-x0628_0_A_α
     RDKit          3D

 25 26  0  0  0  0  0  0  0  0999 V2000
   -2.7200   14.8090    0.8120 N   0  0  0  0  0  0  0  0  0  0  0  0
   -3.3810   14.6060   -0.3740 C   0  0  0  0  0  0  0  0  0  0  0  0
   -2.7870   14.2780   -1.4700 N   0  0  0  0  0  0  0  0  0  0  0  0
   -4.8080   14.7610   -0.3000 C   0  0  0  0  0  0  0  0  0  0  0  0
   -1.3670   14.0500   -1.6690 C   0  0  0  0  0  0  0  0  0  0  0  0
   -5.6640   15.2640   -1.3130 C   0  0  0  0  0  0  0  0  0  0  0  0
   -5.6740   14.4560    0.7300 C   0  0  0  0  0  0  0  0  0  0  0  0
   -1.2250   12.7110   -2.4360 C   0  0  0  0  0  0  0  0  0  0  0  0
   -6.9460   15.2700   -0.9580 N   0  0  0  0  0  0  0  0  0  0  0  0
   -6.9270   14.7740    0.2880 N   0  0  0  0  0  0  0  0  0  0  0  0
   -8.1610   14.6220    1.0240 C   0  0  0  0  0  0  0  0  0  0  0  0
   -2.0710   12.5820   -3.7250 C   0  0  0  0  0  0  0  0  0  0  0  0
   -7.9080   14.1480    2.4450 C   0  0  0  0  0  0  0  0  0  0  0  0
   -1.4150   11.7650   -4.8140 C   0  0  0  0  0  0  0  0  0  0  0  0
   -7.1370   15.1040    3.1680 O   0  0  0  0  0  0  0  0  0  0  0  0
   -1.8630   10.6250   -5.3330 N   0  0  0  0  0  0  0  0  0  0  0  0
   -0.2360   12.0820   -5.4460 N   0  0  0  0  0  0  0  0  0  0  0  0
    0.6460   13.2170   -5.2510 C   0  0  0  0  0  0  0  0  0  0  0  0
   -0.9170   10.2950   -6.2730 C   0  0  0  0  0  0  0  0  0  0  0  0
    0.0910   11.1610   -6.3740 N   0  0  0  0  0  0  0  0  0  0  0  0
   -1.0000    9.0790   -7.1090 C   0  0  0  0  0  0  0  0  0  0  0  0
    1.7850   12.9200   -4.2790 C   0  0  0  0  0  0  0  0  0  0  0  0
    1.2850   12.2290   -3.0360 C   0  0  0  0  0  0  0  0  0  0  0  0
    0.7820   11.1150   -2.9880 O   0  0  0  0  0  0  0  0  0  0  0  0
    1.4470   12.9820   -1.9270 O   0  0  0  0  0  0  0  0  0  0  0  0
  1  2  1  0
  2  3  2  3
  2  4  1  0
  3  5  1  0
  4  6  1  0
  4  7  2  0
  5  8  1  0
  6  9  2  0
  7 10  1  0
  9 10  1  0
 10 11  1  0
  8 12  1  0
 11 13  1  0
 12 14  1  0
 13 15  1  0
 14 16  2  0
 14 17  1  0
 17 18  1  0
 16 19  1  0
 17 20  1  0
 19 20  2  0
 19 21  1  0
 18 22  1  0
 22 23  1  0
 23 24  2  0
 23 25  1  0
M  END
>  <comRMSD>  (460) 
0.287176

>  <∆∆G>  (460) 
-3.732992

>  <N_constrained_atoms>  (460) 
23.0

>  <LE>  (460) 
-0.14932

>  <ref_pdb>  (460) 
x0104_0

>  <ref_mols>  (460) 
x0592_0_A_α,x0628_0_A_α

>  <%Rank>  (460) 
7.875772

>  <generation_date>  (460) 
nan

>  <method>  (460) 
nan

>  <submitter_email>  (460) 
nan

>  <original SMILES>  (460) 
Cc1nc(CCCN=C(N)c2cnn(CCO)c2)n(CCC(=O)O)n1

>  <ref_url>  (460) 
nan

>  <submitter_name>  (460) 
nan

>  <submitter_institution>  (460) 
nan

$$$$
x0104_0_A_β-5L9K_0_A_γ
     RDKit          3D

 17 18  0  0  0  0  0  0  0  0999 V2000
   -6.7350   14.8670    2.5600 N   0  0  0  0  0  0  0  0  0  0  0  0
   -6.1780   14.7670    1.2850 C   0  0  0  0  0  0  0  0  0  0  0  0
   -6.9740   14.6140    0.1570 C   0  0  0  0  0  0  0  0  0  0  0  0
   -4.7990   14.8170    1.0860 C   0  0  0  0  0  0  0  0  0  0  0  0
   -4.1810   14.7200   -0.1140 N   0  0  0  0  0  0  0  0  0  0  0  0
   -6.3770   14.5120   -1.0990 C   0  0  0  0  0  0  0  0  0  0  0  0
   -4.9900   14.5640   -1.1870 C   0  0  0  0  0  0  0  0  0  0  0  0
   -4.4460   14.4370   -2.4620 O   0  0  0  0  0  0  0  0  0  0  0  0
   -3.3530   15.3190   -2.7390 C   0  0  0  0  0  0  0  0  0  0  0  0
   -1.9440   14.6630   -2.8440 C   0  0  2  0  0  0  0  0  0  0  0  0
   -0.9140   15.6060   -3.2200 O   0  0  0  0  0  0  0  0  0  0  0  0
   -1.7960   13.5420   -3.8890 C   0  0  1  0  0  0  0  0  0  0  0  0
   -3.0030   13.0540   -4.4400 O   0  0  0  0  0  0  0  0  0  0  0  0
   -0.8840   15.6110   -4.6460 C   0  0  2  0  0  0  0  0  0  0  0  0
   -0.8540   14.1220   -4.9550 C   0  0  1  0  0  0  0  0  0  0  0  0
    0.3030   16.4300   -5.1430 C   0  0  0  0  0  0  0  0  0  0  0  0
    0.4490   13.5500   -4.7500 O   0  0  0  0  0  0  0  0  0  0  0  0
  1  2  1  0
  2  3  2  0
  2  4  1  0
  4  5  2  0
  3  6  1  0
  5  7  1  0
  6  7  2  0
  7  8  1  0
  8  9  1  0
 10  9  1  6
 10 11  1  0
 10 12  1  0
 12 13  1  6
 11 14  1  0
 12 15  1  0
 14 15  1  0
 14 16  1  1
 15 17  1  1
M  END
>  <comRMSD>  (461) 
0.486619

>  <∆∆G>  (461) 
-5.762427

>  <N_constrained_atoms>  (461) 
17.0

>  <LE>  (461) 
-0.338966

>  <ref_pdb>  (461) 
x0104_0

>  <ref_mols>  (461) 
x0104_0_A_β

>  <%Rank>  (461) 
7.892931

>  <generation_date>  (461) 
nan

>  <method>  (461) 
nan

>  <submitter_email>  (461) 
nan

>  <original SMILES>  (461) 
CC1OC(COc2ccc(N)cn2)C(O)C1O

>  <ref_url>  (461) 
nan

>  <submitter_name>  (461) 
nan

>  <submitter_institution>  (461) 
nan

$$$$
x0574_0_A_α-x0933_0_A_α
     RDKit          3D

 12 13  0  0  0  0  0  0  0  0999 V2000
    0.1450   14.0400    2.1130 N   0  0  0  0  0  0  0  0  0  0  0  0
   -0.9310   14.3000    1.3950 C   0  0  0  0  0  0  0  0  0  0  0  0
   -2.0670   14.3110    1.9700 N   0  0  0  0  0  0  0  0  0  0  0  0
   -0.9360   14.6270   -0.2860 S   0  0  0  0  0  0  0  0  0  0  0  0
   -3.0580   14.5640    1.0820 C   0  0  0  0  0  0  0  0  0  0  0  0
   -2.6580   14.7740   -0.2240 C   0  0  0  0  0  0  0  0  0  0  0  0
   -4.4010   14.6130    1.4200 C   0  0  0  0  0  0  0  0  0  0  0  0
   -3.6030   15.0490   -1.2240 C   0  0  0  0  0  0  0  0  0  0  0  0
   -5.3510   14.8690    0.4660 C   0  0  0  0  0  0  0  0  0  0  0  0
   -4.9580   15.0920   -0.8550 C   0  0  0  0  0  0  0  0  0  0  0  0
   -6.6840   14.9150    0.7430 O   0  0  0  0  0  0  0  0  0  0  0  0
   -7.0150   14.5790    2.0970 C   0  0  0  0  0  0  0  0  0  0  0  0
  1  2  1  0
  2  3  2  0
  2  4  1  0
  3  5  1  0
  4  6  1  0
  5  6  2  0
  5  7  1  0
  6  8  1  0
  7  9  2  0
  8 10  2  0
  9 10  1  0
  9 11  1  0
 11 12  1  0
M  END
>  <comRMSD>  (462) 
0.540957

>  <∆∆G>  (462) 
-8.40644

>  <N_constrained_atoms>  (462) 
12.0

>  <LE>  (462) 
-0.700537

>  <ref_pdb>  (462) 
x0104_0

>  <ref_mols>  (462) 
x0574_0_A_α,x0933_0_A_α

>  <%Rank>  (462) 
7.910089

>  <generation_date>  (462) 
nan

>  <method>  (462) 
nan

>  <submitter_email>  (462) 
nan

>  <original SMILES>  (462) 
COc1ccc2sc(N)nc2c1

>  <ref_url>  (462) 
nan

>  <submitter_name>  (462) 
nan

>  <submitter_institution>  (462) 
nan

$$$$
x0864_0_A_α-x0849_0_A_α
     RDKit          3D

 24 26  0  0  0  0  0  0  0  0999 V2000
    1.5620   11.7150   -6.9880 O   0  0  0  0  0  0  0  0  0  0  0  0
    0.5090   11.2720   -6.5630 C   0  0  0  0  0  0  0  0  0  0  0  0
   -0.1320   11.7570   -5.4430 N   0  0  0  0  0  0  0  0  0  0  0  0
   -0.1380   10.1340   -7.2500 C   0  0  0  0  0  0  0  0  0  0  0  0
    0.5020   12.8910   -4.7900 C   0  0  0  0  0  0  0  0  0  0  0  0
   -1.2910   11.1970   -4.9420 C   0  0  0  0  0  0  0  0  0  0  0  0
   -1.2670    9.6140   -6.7580 C   0  0  0  0  0  0  0  0  0  0  0  0
    0.6770   12.7100   -3.3010 C   0  0  0  0  0  0  0  0  0  0  0  0
   -2.1190    8.1750   -7.5820 Br  0  0  0  0  0  0  0  0  0  0  0  0
   -1.8650   10.1560   -5.5570 C   0  0  0  0  0  0  0  0  0  0  0  0
    0.6600   11.4260   -2.8600 O   0  0  0  0  0  0  0  0  0  0  0  0
    0.8210   13.7530   -2.5690 N   0  0  0  0  0  0  0  0  0  0  0  0
    0.9810   13.6320   -1.1520 C   0  0  0  0  0  0  0  0  0  0  0  0
   -0.2060   14.0590   -0.3530 C   0  0  0  0  0  0  0  0  0  0  0  0
   -0.2620   14.0950    1.0390 C   0  0  0  0  0  0  0  0  0  0  0  0
   -1.3470   14.4280   -1.0090 C   0  0  0  0  0  0  0  0  0  0  0  0
   -2.4830   14.7980   -0.2910 C   0  0  0  0  0  0  0  0  0  0  0  0
   -1.3320   14.4560    1.7550 N   0  0  0  0  0  0  0  0  0  0  0  0
   -2.4230   14.7920    1.1020 C   0  0  0  0  0  0  0  0  0  0  0  0
   -3.6830   15.1700   -0.8920 C   0  0  0  0  0  0  0  0  0  0  0  0
   -3.8560   15.1970   -2.7800 Br  0  0  0  0  0  0  0  0  0  0  0  0
   -3.4630   15.1200    1.8340 N   0  0  0  0  0  0  0  0  0  0  0  0
   -4.7760   15.5190   -0.1190 C   0  0  0  0  0  0  0  0  0  0  0  0
   -4.6010   15.4690    1.2410 C   0  0  0  0  0  0  0  0  0  0  0  0
  1  2  2  0
  2  3  1  0
  2  4  1  0
  3  5  1  0
  3  6  1  0
  4  7  2  0
  5  8  1  0
  7  9  1  0
  6 10  2  0
  7 10  1  0
  8 11  1  0
  8 12  2  3
 12 13  1  0
 13 14  1  0
 14 15  2  0
 14 16  1  0
 16 17  2  0
 15 18  1  0
 17 19  1  0
 18 19  2  0
 17 20  1  0
 20 21  1  0
 19 22  1  0
 20 23  2  0
 22 24  2  0
 23 24  1  0
M  END
>  <comRMSD>  (463) 
0.453315

>  <∆∆G>  (463) 
-6.29916

>  <N_constrained_atoms>  (463) 
23.0

>  <LE>  (463) 
-0.262465

>  <ref_pdb>  (463) 
x0104_0

>  <ref_mols>  (463) 
x0864_0_A_α,x0849_0_A_α

>  <%Rank>  (463) 
7.927248

>  <generation_date>  (463) 
nan

>  <method>  (463) 
nan

>  <submitter_email>  (463) 
nan

>  <original SMILES>  (463) 
O=c1cc(Br)ccn1CC(O)=NCc1cnc2nccc(Br)c2c1

>  <ref_url>  (463) 
nan

>  <submitter_name>  (463) 
nan

>  <submitter_institution>  (463) 
nan

$$$$
x1012_0_A_α-x0628_0_A_α
     RDKit          3D

 21 22  0  0  0  0  0  0  0  0999 V2000
   -0.2780   18.3440   -4.7860 N   0  0  0  0  0  0  0  0  0  0  0  0
   -1.3150   17.4910   -4.8390 C   0  0  0  0  0  0  0  0  0  0  0  0
   -2.4290   17.9320   -4.9290 O   0  0  0  0  0  0  0  0  0  0  0  0
   -1.0250   16.1680   -4.7650 N   0  0  0  0  0  0  0  0  0  0  0  0
   -1.9810   15.2140   -4.1500 C   0  0  0  0  0  0  0  0  0  0  0  0
    0.3960   15.8390   -4.8830 C   0  0  0  0  0  0  0  0  0  0  0  0
   -1.4180   14.4020   -2.9690 C   0  0  0  0  0  0  0  0  0  0  0  0
    0.8510   15.1050   -3.6560 C   0  0  0  0  0  0  0  0  0  0  0  0
   -0.0710   13.9070   -3.4570 C   0  0  0  0  0  0  0  0  0  0  0  0
    0.7070   12.7500   -2.8290 C   0  0  0  0  0  0  0  0  0  0  0  0
    0.0350   11.5250   -2.6180 O   0  0  0  0  0  0  0  0  0  0  0  0
    1.3020   13.1370   -1.6090 O   0  0  0  0  0  0  0  0  0  0  0  0
    1.7300   12.6680   -3.9530 C   0  0  0  0  0  0  0  0  0  0  0  0
    1.0610   12.7090   -5.3550 C   0  0  0  0  0  0  0  0  0  0  0  0
    0.0140   11.7150   -5.6530 N   0  0  0  0  0  0  0  0  0  0  0  0
    0.3010   10.8230   -6.6130 N   0  0  0  0  0  0  0  0  0  0  0  0
   -1.2690   11.4710   -5.1550 C   0  0  0  0  0  0  0  0  0  0  0  0
   -2.0020   12.2030   -4.1070 C   0  0  0  0  0  0  0  0  0  0  0  0
   -1.7740   10.4310   -5.7870 N   0  0  0  0  0  0  0  0  0  0  0  0
   -0.7940   10.0700   -6.6550 C   0  0  0  0  0  0  0  0  0  0  0  0
   -0.9320    8.9290   -7.5720 C   0  0  0  0  0  0  0  0  0  0  0  0
  1  2  1  0
  2  3  2  0
  2  4  1  0
  4  5  1  0
  4  6  1  0
  5  7  1  0
  6  8  1  0
  7  9  1  0
  8  9  1  0
  9 10  1  0
 10 11  1  0
 10 12  1  0
 10 13  1  0
 13 14  1  0
 14 15  1  0
 15 16  1  0
 15 17  1  0
 17 18  1  0
 17 19  2  0
 16 20  2  0
 19 20  1  0
 20 21  1  0
M  END
>  <comRMSD>  (464) 
0.520039

>  <∆∆G>  (464) 
-5.172311

>  <N_constrained_atoms>  (464) 
21.0

>  <LE>  (464) 
-0.246301

>  <ref_pdb>  (464) 
x0104_0

>  <ref_mols>  (464) 
x1012_0_A_α,x0628_0_A_α

>  <%Rank>  (464) 
7.944406

>  <generation_date>  (464) 
nan

>  <method>  (464) 
nan

>  <submitter_email>  (464) 
nan

>  <original SMILES>  (464) 
Cc1nc(C)n(CCC(O)(O)C2CCN(C(N)=O)CC2)n1

>  <ref_url>  (464) 
nan

>  <submitter_name>  (464) 
nan

>  <submitter_institution>  (464) 
nan

$$$$
5CB5_0_N_δ-x0587_0_A_α
     RDKit          3D

 22 24  0  0  0  0  0  0  0  0999 V2000
   -3.6750   15.3260    1.8240 N   0  0  0  0  0  0  0  0  0  0  0  0
   -2.4870   15.4070    1.0110 C   0  0  2  0  0  0  0  0  0  0  0  0
   -2.5980   14.8080   -0.3770 C   0  0  2  0  0  0  0  0  0  0  0  0
   -1.4120   14.7910    1.7390 N   0  0  0  0  0  0  0  0  0  0  0  0
   -1.2630   15.2510   -0.9430 C   0  0  2  0  0  0  0  0  0  0  0  0
   -3.5100   15.3330   -1.3820 N   0  0  0  0  0  0  0  0  0  0  0  0
   -0.1380   14.5770    1.0800 C   0  0  0  0  0  0  0  0  0  0  0  0
   -1.4100   14.9310   -2.3330 N   0  0  0  0  0  0  0  0  0  0  0  0
   -2.7690   15.3870   -2.6260 C   0  0  0  0  0  0  0  0  0  0  0  0
   -0.1500   14.5600   -0.3690 N   0  0  0  0  0  0  0  0  0  0  0  0
   -4.7590   14.6000   -1.5410 C   0  0  0  0  0  0  0  0  0  0  0  0
   -4.4330   13.3160   -1.8980 F   0  0  0  0  0  0  0  0  0  0  0  0
   -5.3240   15.1180   -2.6710 F   0  0  0  0  0  0  0  0  0  0  0  0
   -5.7410   14.6430   -0.3500 C   0  0  0  0  0  0  0  0  0  0  0  0
   -7.0720   14.5700   -0.6010 N   0  0  0  0  0  0  0  0  0  0  0  0
   -5.2290   14.7610    0.8900 N   0  0  0  0  0  0  0  0  0  0  0  0
   -7.9020   14.6350    0.4670 C   0  0  0  0  0  0  0  0  0  0  0  0
   -6.0970   14.8210    1.9150 C   0  0  0  0  0  0  0  0  0  0  0  0
   -7.4570   14.7690    1.7660 C   0  0  0  0  0  0  0  0  0  0  0  0
   -8.3970   14.8590    2.8890 C   0  0  0  0  0  0  0  0  0  0  0  0
   -7.8750   14.8170    4.1470 N   0  0  0  0  0  0  0  0  0  0  0  0
   -9.5990   14.9880    2.6970 O   0  0  0  0  0  0  0  0  0  0  0  0
  2  1  1  1
  2  3  1  0
  2  4  1  0
  3  5  1  0
  3  6  1  6
  4  7  1  0
  5  8  1  6
  6  9  1  0
  8  9  1  0
  5 10  1  0
  7 10  1  0
  6 11  1  0
 11 12  1  0
 11 13  1  0
 11 14  1  0
 14 15  2  0
 14 16  1  0
 15 17  1  0
 16 18  2  0
 17 19  2  0
 18 19  1  0
 19 20  1  0
 20 21  1  0
 20 22  2  0
M  END
>  <comRMSD>  (465) 
0.457388

>  <∆∆G>  (465) 
-1.885746

>  <N_constrained_atoms>  (465) 
22.0

>  <LE>  (465) 
-0.085716

>  <ref_pdb>  (465) 
x0104_0

>  <ref_mols>  (465) 
x0587_0_A_α

>  <%Rank>  (465) 
7.961565

>  <generation_date>  (465) 
nan

>  <method>  (465) 
nan

>  <submitter_email>  (465) 
nan

>  <original SMILES>  (465) 
NC(=O)c1cnc(C(F)(F)N2CNC3NCNC(N)C32)nc1

>  <ref_url>  (465) 
nan

>  <submitter_name>  (465) 
nan

>  <submitter_institution>  (465) 
nan

$$$$
x1015_0_A_α-x0926_0_A_α
     RDKit          3D

 24 26  0  0  0  0  0  0  0  0999 V2000
   -1.5270   14.2850   -3.9680 C   0  0  0  0  0  0  0  0  0  0  0  0
   -0.1530   13.6260   -3.8820 C   0  0  2  0  0  0  0  0  0  0  0  0
   -0.2250   12.1530   -3.9040 N   0  0  0  0  0  0  0  0  0  0  0  0
    0.4570   13.7270   -2.4880 C   0  0  0  0  0  0  0  0  0  0  0  0
    0.3640   14.5110   -1.4820 N   0  0  0  0  0  0  0  0  0  0  0  0
    0.4700   11.6410   -2.7900 C   0  0  0  0  0  0  0  0  0  0  0  0
    1.2470   12.6650   -2.3680 N   0  0  0  0  0  0  0  0  0  0  0  0
   -0.5830   11.3920   -5.0430 C   0  0  0  0  0  0  0  0  0  0  0  0
    0.4260   10.5360   -2.2500 O   0  0  0  0  0  0  0  0  0  0  0  0
   -0.5220   15.6540   -1.4320 C   0  0  0  0  0  0  0  0  0  0  0  0
    0.0110   11.6230   -6.2970 C   0  0  0  0  0  0  0  0  0  0  0  0
   -1.5400   10.3760   -4.9510 C   0  0  0  0  0  0  0  0  0  0  0  0
   -1.2300   15.5720   -0.0730 C   0  0  0  0  0  0  0  0  0  0  0  0
   -0.3450   10.8610   -7.4130 C   0  0  0  0  0  0  0  0  0  0  0  0
   -1.8990    9.6120   -6.0610 C   0  0  0  0  0  0  0  0  0  0  0  0
   -1.3010    9.8560   -7.2900 C   0  0  0  0  0  0  0  0  0  0  0  0
   -2.7590   15.6840   -0.1690 C   0  0  1  0  0  0  0  0  0  0  0  0
   -1.7490    8.9130   -8.6530 Cl  0  0  0  0  0  0  0  0  0  0  0  0
   -3.2950   14.9910   -1.3560 N   0  0  0  0  0  0  0  0  0  0  0  0
   -3.5530   15.3170    1.0470 C   0  0  0  0  0  0  0  0  0  0  0  0
   -4.8640   15.0480    0.9570 C   0  0  0  0  0  0  0  0  0  0  0  0
   -4.6980   15.1870   -1.4650 N   0  0  0  0  0  0  0  0  0  0  0  0
   -5.5310   15.1050   -0.3690 C   0  0  0  0  0  0  0  0  0  0  0  0
   -6.7540   15.0650   -0.4680 O   0  0  0  0  0  0  0  0  0  0  0  0
  2  1  1  1
  2  3  1  0
  2  4  1  0
  4  5  2  3
  3  6  1  0
  4  7  1  0
  6  7  1  0
  3  8  1  0
  6  9  2  0
  5 10  1  0
  8 11  2  0
  8 12  1  0
 10 13  1  0
 11 14  1  0
 12 15  2  0
 14 16  2  0
 15 16  1  0
 17 13  1  1
 16 18  1  0
 17 19  1  0
 17 20  1  0
 20 21  2  0
 19 22  1  0
 21 23  1  0
 22 23  1  0
 23 24  2  0
M  END
>  <comRMSD>  (466) 
0.326447

>  <∆∆G>  (466) 
-6.679912

>  <N_constrained_atoms>  (466) 
22.0

>  <LE>  (466) 
-0.27833

>  <ref_pdb>  (466) 
x0104_0

>  <ref_mols>  (466) 
x1015_0_A_α,x0926_0_A_α

>  <%Rank>  (466) 
7.978723

>  <generation_date>  (466) 
nan

>  <method>  (466) 
nan

>  <submitter_email>  (466) 
nan

>  <original SMILES>  (466) 
CC1C(=NCCC2C=CC(=O)NN2)NC(=O)N1c1ccc(Cl)cc1

>  <ref_url>  (466) 
nan

>  <submitter_name>  (466) 
nan

>  <submitter_institution>  (466) 
nan

$$$$
x0465_0_A_α-x0689_0_A_α
     RDKit          3D

 22 23  0  0  0  0  0  0  0  0999 V2000
    1.8130   13.2770   -5.4030 C   0  0  0  0  0  0  0  0  0  0  0  0
    0.5850   12.5970   -4.8550 C   0  0  1  0  0  0  0  0  0  0  0  0
    0.5720   11.2630   -5.3210 O   0  0  0  0  0  0  0  0  0  0  0  0
    0.6560   12.5660   -3.3410 C   0  0  0  0  0  0  0  0  0  0  0  0
    0.7510   13.5970   -2.5830 N   0  0  0  0  0  0  0  0  0  0  0  0
    0.6230   11.3500   -2.7540 O   0  0  0  0  0  0  0  0  0  0  0  0
   -0.5750   10.6240   -5.6560 C   0  0  0  0  0  0  0  0  0  0  0  0
    0.8220   13.4930   -1.1480 C   0  0  0  0  0  0  0  0  0  0  0  0
   -0.7240    9.6270   -6.6170 C   0  0  0  0  0  0  0  0  0  0  0  0
   -1.6980   11.0370   -4.9350 C   0  0  0  0  0  0  0  0  0  0  0  0
    0.3100    9.1860   -7.3460 F   0  0  0  0  0  0  0  0  0  0  0  0
   -1.9670    9.0460   -6.8560 C   0  0  0  0  0  0  0  0  0  0  0  0
   -2.9480   10.4600   -5.1700 C   0  0  0  0  0  0  0  0  0  0  0  0
   -0.3530   14.0090   -0.3990 C   0  0  0  0  0  0  0  0  0  0  0  0
   -3.0800    9.4620   -6.1320 C   0  0  0  0  0  0  0  0  0  0  0  0
   -1.4840   14.4410   -1.0280 C   0  0  0  0  0  0  0  0  0  0  0  0
   -0.4020   14.0850    0.9820 C   0  0  0  0  0  0  0  0  0  0  0  0
   -2.5610   14.9020   -0.3830 N   0  0  0  0  0  0  0  0  0  0  0  0
   -1.4540   14.5380    1.6820 N   0  0  0  0  0  0  0  0  0  0  0  0
   -2.5050   14.9350    0.9510 C   0  0  0  0  0  0  0  0  0  0  0  0
   -3.5840   15.4030    1.6620 N   0  0  0  0  0  0  0  0  0  0  0  0
   -4.8560   14.9980    1.1300 C   0  0  0  0  0  0  0  0  0  0  0  0
  2  1  1  6
  2  3  1  0
  2  4  1  0
  4  5  2  3
  4  6  1  0
  3  7  1  0
  5  8  1  0
  7  9  2  0
  7 10  1  0
  9 11  1  0
  9 12  1  0
 10 13  2  0
  8 14  1  0
 12 15  2  0
 13 15  1  0
 14 16  2  0
 14 17  1  0
 16 18  1  0
 17 19  2  0
 18 20  2  0
 19 20  1  0
 20 21  1  0
 21 22  1  0
M  END
>  <comRMSD>  (467) 
0.438463

>  <∆∆G>  (467) 
-7.037937

>  <N_constrained_atoms>  (467) 
21.0

>  <LE>  (467) 
-0.319906

>  <ref_pdb>  (467) 
x0104_0

>  <ref_mols>  (467) 
x0465_0_A_α,x0689_0_A_α

>  <%Rank>  (467) 
7.995882

>  <generation_date>  (467) 
nan

>  <method>  (467) 
nan

>  <submitter_email>  (467) 
nan

>  <original SMILES>  (467) 
CNc1ncc(CN=C(O)[C@@H](C)Oc2ccccc2F)cn1

>  <ref_url>  (467) 
nan

>  <submitter_name>  (467) 
nan

>  <submitter_institution>  (467) 
nan

$$$$
x0626_0_A_α-x0950_1_A_α
     RDKit          3D

 19 19  0  0  0  0  0  0  0  0999 V2000
   -4.8710   14.8810    1.4340 N   0  0  0  0  0  0  0  0  0  0  0  0
   -6.0690   14.7080    0.8010 C   0  0  0  0  0  0  0  0  0  0  0  0
   -6.1260   14.8500   -0.4250 O   0  0  0  0  0  0  0  0  0  0  0  0
   -3.6510   14.8040    0.8410 C   0  0  0  0  0  0  0  0  0  0  0  0
   -7.2970   14.3520    1.6180 C   0  0  0  0  0  0  0  0  0  0  0  0
   -2.4480   14.6500    1.3760 N   0  0  0  0  0  0  0  0  0  0  0  0
   -3.7490   14.9210   -0.8550 S   0  0  0  0  0  0  0  0  0  0  0  0
   -8.5900   14.6600    0.8760 C   0  0  0  0  0  0  0  0  0  0  0  0
   -2.0600   14.7510   -0.9280 C   0  0  0  0  0  0  0  0  0  0  0  0
   -1.5280   14.6180    0.3400 C   0  0  0  0  0  0  0  0  0  0  0  0
   -0.0770   14.4510    0.5950 C   0  0  0  0  0  0  0  0  0  0  0  0
    0.7160   14.8020   -0.6710 C   0  0  0  0  0  0  0  0  0  0  0  0
    0.3810   13.9870   -1.9140 C   0  0  0  0  0  0  0  0  0  0  0  0
    1.3300   12.9310   -2.0920 O   0  0  0  0  0  0  0  0  0  0  0  0
    0.9550   12.0400   -3.0460 C   0  0  0  0  0  0  0  0  0  0  0  0
    1.3540   12.4980   -4.4620 C   0  0  2  0  0  0  0  0  0  0  0  0
    0.3640   10.9900   -2.8210 O   0  0  0  0  0  0  0  0  0  0  0  0
    1.0290   13.9470   -4.7570 C   0  0  0  0  0  0  0  0  0  0  0  0
    0.6880   11.7060   -5.4490 O   0  0  0  0  0  0  0  0  0  0  0  0
  1  2  1  0
  2  3  2  0
  1  4  1  0
  2  5  1  0
  4  6  2  0
  4  7  1  0
  5  8  1  0
  7  9  1  0
  6 10  1  0
  9 10  2  0
 10 11  1  0
 11 12  1  0
 12 13  1  0
 13 14  1  0
 14 15  1  0
 15 16  1  0
 15 17  2  0
 16 18  1  6
 16 19  1  0
M  END
>  <comRMSD>  (468) 
0.248115

>  <∆∆G>  (468) 
-8.502999

>  <N_constrained_atoms>  (468) 
17.0

>  <LE>  (468) 
-0.447526

>  <ref_pdb>  (468) 
x0104_0

>  <ref_mols>  (468) 
x0626_0_A_α,x0950_1_A_α

>  <%Rank>  (468) 
8.01304

>  <generation_date>  (468) 
nan

>  <method>  (468) 
nan

>  <submitter_email>  (468) 
nan

>  <original SMILES>  (468) 
CCC(=O)Nc1nc(CCCOC(=O)[C@H](C)O)cs1

>  <ref_url>  (468) 
nan

>  <submitter_name>  (468) 
nan

>  <submitter_institution>  (468) 
nan

$$$$
5LW0_1_B_γ-6WOJ_0_C_β
     RDKit          3D

 16 16  0  0  0  0  0  0  0  0999 V2000
   -1.4270   12.4200   -3.8560 O   0  0  0  0  0  0  0  0  0  0  0  0
   -0.3770   13.2860   -3.5700 C   0  0  2  0  0  0  0  0  0  0  0  0
   -0.7530   14.3710   -2.5710 C   0  0  0  0  0  0  0  0  0  0  0  0
    0.0960   14.0670   -4.7790 C   0  0  2  0  0  0  0  0  0  0  0  0
    1.4920   14.0020   -4.7130 O   0  0  0  0  0  0  0  0  0  0  0  0
   -0.2060   15.5430   -3.1190 O   0  0  0  0  0  0  0  0  0  0  0  0
   -0.4700   15.4150   -4.4680 C   0  0  1  0  0  0  0  0  0  0  0  0
   -0.0160   16.6630   -5.2670 C   0  0  0  0  0  0  0  0  0  0  0  0
   -1.2750   17.8610   -5.6320 P   0  0  0  0  0  0  0  0  0  0  0  0
   -0.4050   19.0780   -6.0300 O   0  0  0  0  0  0  0  0  0  0  0  0
   -1.7270   18.9070   -4.3940 O   0  0  0  0  0  0  0  0  0  0  0  0
   -2.1990   17.9330   -6.9520 O   0  0  0  0  0  0  0  0  0  0  0  0
    0.0540   19.5850   -7.4880 P   0  0  0  0  0  0  0  0  0  0  0  0
   -1.3010   20.2050   -7.8680 O   0  0  0  0  0  0  0  0  0  0  0  0
    0.7390   21.1070   -7.7340 O   0  0  0  0  0  0  0  0  0  0  0  0
    0.0620   18.5130   -8.7270 O   0  0  0  0  0  0  0  0  0  0  0  0
  2  1  1  6
  2  3  1  0
  2  4  1  0
  4  5  1  1
  3  6  1  0
  4  7  1  0
  6  7  1  0
  7  8  1  6
  8  9  1  0
  9 10  1  0
  9 11  1  0
  9 12  1  0
 10 13  1  0
 13 14  1  0
 13 15  1  0
 13 16  1  0
M  CHG  2  11  -1  15  -1
M  END
>  <comRMSD>  (469) 
0.551964

>  <∆∆G>  (469) 
-8.19027

>  <N_constrained_atoms>  (469) 
16.0

>  <LE>  (469) 
-0.511892

>  <ref_pdb>  (469) 
x0104_0

>  <ref_mols>  (469) 


>  <%Rank>  (469) 
8.030199

>  <generation_date>  (469) 
nan

>  <method>  (469) 
nan

>  <submitter_email>  (469) 
nan

>  <original SMILES>  (469) 
[O-][PH](O)(O)O[PH]([O-])(O)CC1OCC(O)C1O

>  <ref_url>  (469) 
nan

>  <submitter_name>  (469) 
nan

>  <submitter_institution>  (469) 
nan

$$$$
x0574_0_A_α-x0900_0_A_α
     RDKit          3D

 12 13  0  0  0  0  0  0  0  0999 V2000
    0.1470   14.0430    2.1090 N   0  0  0  0  0  0  0  0  0  0  0  0
   -0.9280   14.3010    1.3910 C   0  0  0  0  0  0  0  0  0  0  0  0
   -2.0660   14.3130    1.9710 N   0  0  0  0  0  0  0  0  0  0  0  0
   -0.9330   14.6250   -0.2880 S   0  0  0  0  0  0  0  0  0  0  0  0
   -3.0560   14.5640    1.0820 C   0  0  0  0  0  0  0  0  0  0  0  0
   -2.6580   14.7710   -0.2240 C   0  0  0  0  0  0  0  0  0  0  0  0
   -4.4010   14.6140    1.4210 C   0  0  0  0  0  0  0  0  0  0  0  0
   -3.6040   15.0430   -1.2270 C   0  0  0  0  0  0  0  0  0  0  0  0
   -5.3530   14.8660    0.4670 C   0  0  0  0  0  0  0  0  0  0  0  0
   -4.9600   15.0850   -0.8540 C   0  0  0  0  0  0  0  0  0  0  0  0
   -6.6860   14.9140    0.7460 O   0  0  0  0  0  0  0  0  0  0  0  0
   -7.0230   14.5740    2.0960 C   0  0  0  0  0  0  0  0  0  0  0  0
  1  2  1  0
  2  3  2  0
  2  4  1  0
  3  5  1  0
  4  6  1  0
  5  6  2  0
  5  7  1  0
  6  8  1  0
  7  9  2  0
  8 10  2  0
  9 10  1  0
  9 11  1  0
 11 12  1  0
M  END
>  <comRMSD>  (470) 
0.54197

>  <∆∆G>  (470) 
-8.39637

>  <N_constrained_atoms>  (470) 
12.0

>  <LE>  (470) 
-0.699697

>  <ref_pdb>  (470) 
x0104_0

>  <ref_mols>  (470) 
x0574_0_A_α,x0900_0_A_α

>  <%Rank>  (470) 
8.047358

>  <generation_date>  (470) 
nan

>  <method>  (470) 
nan

>  <submitter_email>  (470) 
nan

>  <original SMILES>  (470) 
COc1ccc2sc(N)nc2c1

>  <ref_url>  (470) 
nan

>  <submitter_name>  (470) 
nan

>  <submitter_institution>  (470) 
nan

$$$$
x0465_0_A_α-x0662_0_A_α
     RDKit          3D

 24 25  0  0  0  0  0  0  0  0999 V2000
    2.0130   13.2420   -4.9440 C   0  0  0  0  0  0  0  0  0  0  0  0
    0.6980   12.5420   -4.6340 C   0  0  1  0  0  0  0  0  0  0  0  0
    0.6210   11.4140   -5.5230 O   0  0  0  0  0  0  0  0  0  0  0  0
    0.7340   12.0980   -3.1620 C   0  0  0  0  0  0  0  0  0  0  0  0
    1.0170   12.8410   -2.2330 O   0  0  0  0  0  0  0  0  0  0  0  0
    0.4290   10.7970   -2.9500 O   0  0  0  0  0  0  0  0  0  0  0  0
   -0.6020   10.8010   -5.6270 C   0  0  0  0  0  0  0  0  0  0  0  0
   -0.7020    9.6840   -6.4660 C   0  0  0  0  0  0  0  0  0  0  0  0
   -1.7260   11.2460   -4.9350 C   0  0  0  0  0  0  0  0  0  0  0  0
    0.4080    9.2540   -7.1430 O   0  0  0  0  0  0  0  0  0  0  0  0
   -1.9090    9.0100   -6.6160 C   0  0  0  0  0  0  0  0  0  0  0  0
   -2.9410   10.5700   -5.0860 C   0  0  0  0  0  0  0  0  0  0  0  0
    0.0440    8.4200   -8.2510 C   0  0  0  0  0  0  0  0  0  0  0  0
   -3.0330    9.4550   -5.9240 C   0  0  0  0  0  0  0  0  0  0  0  0
    0.8670    8.8610   -9.4520 C   0  0  0  0  0  0  0  0  0  0  0  0
    1.8580    7.7890   -9.8920 C   0  0  0  0  0  0  0  0  0  0  0  0
    2.6140    8.2810  -11.0470 N   0  0  0  0  0  0  0  0  0  0  0  0
    2.2490    9.4250  -11.5220 C   0  0  0  0  0  0  0  0  0  0  0  0
    2.9670    9.9630  -12.6580 C   0  0  0  0  0  0  0  0  0  0  0  0
    3.9150    9.2260  -13.2530 N   0  0  0  0  0  0  0  0  0  0  0  0
    2.8230   11.2300  -13.2820 C   0  0  0  0  0  0  0  0  0  0  0  0
    4.3670   10.0170  -14.2400 N   0  0  0  0  0  0  0  0  0  0  0  0
    3.7460   11.2310  -14.3020 C   0  0  0  0  0  0  0  0  0  0  0  0
    5.4210    9.5300  -15.0970 C   0  0  0  0  0  0  0  0  0  0  0  0
  2  1  1  6
  2  3  1  0
  2  4  1  0
  4  5  2  0
  4  6  1  0
  3  7  1  0
  7  8  2  0
  7  9  1  0
  8 10  1  0
  8 11  1  0
  9 12  2  0
 10 13  1  0
 11 14  2  0
 12 14  1  0
 13 15  1  0
 15 16  1  0
 16 17  1  0
 17 18  2  3
 18 19  1  0
 19 20  2  0
 19 21  1  0
 20 22  1  0
 21 23  2  0
 22 23  1  0
 22 24  1  0
M  END
>  <comRMSD>  (471) 
0.150072

>  <∆∆G>  (471) 
-5.24085

>  <N_constrained_atoms>  (471) 
21.0

>  <LE>  (471) 
-0.218369

>  <ref_pdb>  (471) 
x0104_0

>  <ref_mols>  (471) 
x0465_0_A_α,x0662_0_A_α

>  <%Rank>  (471) 
8.064516

>  <generation_date>  (471) 
nan

>  <method>  (471) 
nan

>  <submitter_email>  (471) 
nan

>  <original SMILES>  (471) 
C[C@@H](Oc1ccccc1OCCCN=Cc1ccn(C)n1)C(=O)O

>  <ref_url>  (471) 
nan

>  <submitter_name>  (471) 
nan

>  <submitter_institution>  (471) 
nan

$$$$
x1012_0_A_α-x0128_0_A_α
     RDKit          3D

 31 33  0  0  0  0  0  0  0  0999 V2000
   -0.5050   18.0390   -4.9260 N   0  0  0  0  0  0  0  0  0  0  0  0
   -1.2690   16.9310   -4.8190 C   0  0  0  0  0  0  0  0  0  0  0  0
   -2.5290   17.0520   -4.6660 N   0  0  0  0  0  0  0  0  0  0  0  0
   -0.5460   15.7710   -4.8790 N   0  0  0  0  0  0  0  0  0  0  0  0
   -3.2030   15.7530   -4.5560 C   0  0  0  0  0  0  0  0  0  0  0  0
   -1.1760   14.4830   -5.1910 C   0  0  0  0  0  0  0  0  0  0  0  0
    0.8640   15.7510   -4.5450 C   0  0  0  0  0  0  0  0  0  0  0  0
   -3.4470   15.3980   -3.0840 C   0  0  0  0  0  0  0  0  0  0  0  0
   -1.1710   13.5420   -4.0020 C   0  0  0  0  0  0  0  0  0  0  0  0
    1.2030   14.4730   -3.7740 C   0  0  0  0  0  0  0  0  0  0  0  0
   -4.7730   14.6910   -2.8520 C   0  0  0  0  0  0  0  0  0  0  0  0
   -0.0190   13.8680   -3.0590 C   0  0  0  0  0  0  0  0  0  0  0  0
    0.3330   12.6450   -2.2380 C   0  0  0  0  0  0  0  0  0  0  0  0
   -5.2260   14.7540   -1.4150 C   0  0  0  0  0  0  0  0  0  0  0  0
    0.3710   11.4740   -2.9080 O   0  0  0  0  0  0  0  0  0  0  0  0
    0.5490   12.7040   -1.0460 O   0  0  0  0  0  0  0  0  0  0  0  0
   -6.5730   14.5090   -1.1380 C   0  0  0  0  0  0  0  0  0  0  0  0
   -4.3460   15.0390   -0.3630 C   0  0  0  0  0  0  0  0  0  0  0  0
   -7.0470   14.5380    0.1650 C   0  0  0  0  0  0  0  0  0  0  0  0
   -4.8250   15.0680    0.9510 C   0  0  0  0  0  0  0  0  0  0  0  0
   -6.1790   14.8130    1.2130 C   0  0  0  0  0  0  0  0  0  0  0  0
   -6.6040   14.8490    2.5500 N   0  0  0  0  0  0  0  0  0  0  0  0
   -7.8350   15.2260    3.0660 C   0  0  0  0  0  0  0  0  0  0  0  0
   -8.8480   15.4250    2.3950 O   0  0  0  0  0  0  0  0  0  0  0  0
   -7.7210   15.3510    4.4410 N   0  0  0  0  0  0  0  0  0  0  0  0
   -8.5140   16.0950    5.3390 C   0  0  0  0  0  0  0  0  0  0  0  0
   -9.1600   17.2470    4.8840 C   0  0  0  0  0  0  0  0  0  0  0  0
   -8.7060   15.7640    6.6730 C   0  0  0  0  0  0  0  0  0  0  0  0
   -9.9460   18.0460    5.6380 N   0  0  0  0  0  0  0  0  0  0  0  0
   -9.5110   16.5680    7.4830 C   0  0  0  0  0  0  0  0  0  0  0  0
  -10.1030   17.6880    6.9250 C   0  0  0  0  0  0  0  0  0  0  0  0
  1  2  1  0
  2  3  2  3
  2  4  1  0
  3  5  1  0
  4  6  1  0
  4  7  1  0
  5  8  1  0
  6  9  1  0
  7 10  1  0
  8 11  1  0
  9 12  1  0
 10 12  1  0
 12 13  1  0
 11 14  1  0
 13 15  1  0
 13 16  2  0
 14 17  2  0
 14 18  1  0
 17 19  1  0
 18 20  2  0
 19 21  2  0
 20 21  1  0
 21 22  1  0
 22 23  1  0
 23 24  2  0
 23 25  1  0
 25 26  1  0
 26 27  2  0
 26 28  1  0
 27 29  1  0
 28 30  2  0
 29 31  2  0
 30 31  1  0
M  END
>  <comRMSD>  (472) 
0.389515

>  <∆∆G>  (472) 
-9.421484

>  <N_constrained_atoms>  (472) 
28.0

>  <LE>  (472) 
-0.303919

>  <ref_pdb>  (472) 
x0104_0

>  <ref_mols>  (472) 
x1012_0_A_α,x0128_0_A_α

>  <%Rank>  (472) 
8.081675

>  <generation_date>  (472) 
nan

>  <method>  (472) 
nan

>  <submitter_email>  (472) 
nan

>  <original SMILES>  (472) 
NC(=NCCCc1ccc(NC(=O)Nc2cccnc2)cc1)N1CCC(C(=O)O)CC1

>  <ref_url>  (472) 
nan

>  <submitter_name>  (472) 
nan

>  <submitter_institution>  (472) 
nan

$$$$
x0548_1_B_α-x0548_0_B_α
     RDKit          3D

 15 16  0  0  0  0  0  0  0  0999 V2000
   -6.1280   34.8150    8.7040 C   0  0  0  0  0  0  0  0  0  0  0  0
   -7.5390   34.7590    8.5310 O   0  0  0  0  0  0  0  0  0  0  0  0
   -8.0470   35.5420    7.5350 C   0  0  0  0  0  0  0  0  0  0  0  0
   -7.6210   36.7800    7.2370 C   0  0  0  0  0  0  0  0  0  0  0  0
   -9.1470   34.9300    6.7610 C   0  0  0  0  0  0  0  0  0  0  0  0
   -8.2770   37.4750    6.1770 C   0  0  0  0  0  0  0  0  0  0  0  0
   -9.9400   35.6700    5.9900 C   0  0  0  0  0  0  0  0  0  0  0  0
   -9.7050   37.1350    5.9450 C   0  0  2  0  0  0  0  0  0  0  0  0
   -7.8330   38.4050    5.3650 C   0  0  0  0  0  0  0  0  0  0  0  0
   -6.5500   39.1240    5.1870 C   0  0  0  0  0  0  0  0  0  0  0  0
  -10.1050   37.9140    4.7690 N   0  0  0  0  0  0  0  0  0  0  0  0
   -9.0330   38.6140    4.5330 C   0  0  0  0  0  0  0  0  0  0  0  0
   -6.2860   40.2020    6.1610 N   0  0  0  0  0  0  0  0  0  0  0  0
   -7.2000   40.1480    7.3040 C   0  0  0  0  0  0  0  0  0  0  0  0
   -4.8950   40.2210    6.6140 C   0  0  0  0  0  0  0  0  0  0  0  0
  1  2  1  0
  2  3  1  0
  3  4  2  0
  3  5  1  0
  4  6  1  0
  5  7  2  0
  6  8  1  0
  8  7  1  6
  6  9  2  0
  9 10  1  0
  8 11  1  0
  9 12  1  0
 11 12  2  0
 10 13  1  0
 13 14  1  0
 13 15  1  0
M  END
>  <comRMSD>  (473) 
0.391287

>  <∆∆G>  (473) 
-3.527293

>  <N_constrained_atoms>  (473) 
15.0

>  <LE>  (473) 
-0.235153

>  <ref_pdb>  (473) 
x0104_0

>  <ref_mols>  (473) 
x0548_1_B_α,x0548_0_B_α

>  <%Rank>  (473) 
8.098833

>  <generation_date>  (473) 
nan

>  <method>  (473) 
nan

>  <submitter_email>  (473) 
nan

>  <original SMILES>  (473) 
COC1=CC2=C(CN(C)C)C=NC2C=C1

>  <ref_url>  (473) 
nan

>  <submitter_name>  (473) 
nan

>  <submitter_institution>  (473) 
nan

$$$$
x0662_0_A_β-x0805_0_A_β
     RDKit          3D

 19 20  0  0  0  0  0  0  0  0999 V2000
    1.5880   10.5170  -10.3480 N   0  0  0  0  0  0  0  0  0  0  0  0
    0.7460   10.2010   -9.2760 C   0  0  0  0  0  0  0  0  0  0  0  0
   -0.1640    9.1530   -9.3900 C   0  0  0  0  0  0  0  0  0  0  0  0
    0.7960   10.9250   -8.0780 C   0  0  0  0  0  0  0  0  0  0  0  0
   -0.0440   10.6300   -7.0090 C   0  0  0  0  0  0  0  0  0  0  0  0
   -1.0090    8.8380   -8.3260 C   0  0  0  0  0  0  0  0  0  0  0  0
    0.0450   11.4550   -5.7540 C   0  0  0  0  0  0  0  0  0  0  0  0
   -0.9540    9.5720   -7.1380 C   0  0  0  0  0  0  0  0  0  0  0  0
   -0.6980   11.2800   -4.8100 O   0  0  0  0  0  0  0  0  0  0  0  0
    1.0270   12.4020   -5.8050 O   0  0  0  0  0  0  0  0  0  0  0  0
    1.6100   12.8660   -4.5590 C   0  0  2  0  0  0  0  0  0  0  0  0
    0.6630   13.2130   -3.4350 C   0  0  2  0  0  0  0  0  0  0  0  0
    2.2840   14.1070   -4.7720 O   0  0  0  0  0  0  0  0  0  0  0  0
    0.3330   12.1460   -2.4390 C   0  0  0  0  0  0  0  0  0  0  0  0
   -0.5170   13.9750   -3.9830 C   0  0  0  0  0  0  0  0  0  0  0  0
    1.5840   15.3290   -4.4200 C   0  0  0  0  0  0  0  0  0  0  0  0
    0.0520   10.9240   -2.9300 O   0  0  0  0  0  0  0  0  0  0  0  0
    0.3160   12.3890   -1.2440 O   0  0  0  0  0  0  0  0  0  0  0  0
    0.0510   15.3000   -4.4400 C   0  0  0  0  0  0  0  0  0  0  0  0
  1  2  1  0
  2  3  2  0
  2  4  1  0
  4  5  2  0
  3  6  1  0
  5  7  1  0
  5  8  1  0
  6  8  2  0
  7  9  2  0
  7 10  1  0
 11 10  1  6
 11 12  1  0
 11 13  1  0
 12 14  1  6
 12 15  1  0
 13 16  1  0
 14 17  1  0
 14 18  2  0
 15 19  1  0
 16 19  1  0
M  END
>  <comRMSD>  (474) 
0.464223

>  <∆∆G>  (474) 
-3.896143

>  <N_constrained_atoms>  (474) 
19.0

>  <LE>  (474) 
-0.20506

>  <ref_pdb>  (474) 
x0104_0

>  <ref_mols>  (474) 
x0662_0_A_β,x0805_0_A_β

>  <%Rank>  (474) 
8.115992

>  <generation_date>  (474) 
nan

>  <method>  (474) 
nan

>  <submitter_email>  (474) 
nan

>  <original SMILES>  (474) 
Nc1cccc(C(=O)OC2OCCCC2C(=O)O)c1

>  <ref_url>  (474) 
nan

>  <submitter_name>  (474) 
nan

>  <submitter_institution>  (474) 
nan

$$$$
x0855_0_A_α-x0591_0_A_α
     RDKit          3D

 25 26  0  0  0  0  0  0  0  0999 V2000
    1.6340   12.9070   -2.4960 O   0  0  0  0  0  0  0  0  0  0  0  0
    0.9540   12.0930   -3.3380 C   0  0  0  0  0  0  0  0  0  0  0  0
    0.5760   12.3980   -4.7070 C   0  0  2  0  0  0  0  0  0  0  0  0
    0.6050   10.9480   -2.8950 O   0  0  0  0  0  0  0  0  0  0  0  0
    0.0110   13.7970   -4.9100 C   0  0  0  0  0  0  0  0  0  0  0  0
   -0.4430   11.5050   -5.1570 N   0  0  0  0  0  0  0  0  0  0  0  0
   -1.3990   13.7360   -5.0390 N   0  0  0  0  0  0  0  0  0  0  0  0
   -0.3430   10.6210   -6.1560 C   0  0  0  0  0  0  0  0  0  0  0  0
   -1.6400   11.4270   -4.6410 N   0  0  0  0  0  0  0  0  0  0  0  0
   -2.2040   15.0280   -4.8570 S   0  0  1  0  0  0  0  0  0  0  0  0
   -1.5730    9.9680   -6.2350 C   0  0  0  0  0  0  0  0  0  0  0  0
   -2.3670   10.5070   -5.2640 C   0  0  0  0  0  0  0  0  0  0  0  0
   -2.0590    8.5960   -7.4490 Br  0  0  0  0  0  0  0  0  0  0  0  0
   -1.1740   16.3700   -4.7260 N   0  0  0  0  0  0  0  0  0  0  0  0
   -3.0650   15.1910   -6.1100 O   0  0  0  0  0  0  0  0  0  0  0  0
   -3.3610   14.8790   -3.5330 C   0  0  0  0  0  0  0  0  0  0  0  0
   -3.0700   14.7280   -2.2020 C   0  0  0  0  0  0  0  0  0  0  0  0
   -4.6970   14.9280   -3.8750 C   0  0  0  0  0  0  0  0  0  0  0  0
   -4.0760   14.6390   -1.2400 C   0  0  0  0  0  0  0  0  0  0  0  0
   -5.6830   14.8460   -2.9260 C   0  0  0  0  0  0  0  0  0  0  0  0
   -5.3980   14.7040   -1.6050 C   0  0  0  0  0  0  0  0  0  0  0  0
   -6.5900   14.6300   -0.6700 C   0  0  0  0  0  0  0  0  0  0  0  0
   -6.4670   14.6550    0.6230 N   0  0  0  0  0  0  0  0  0  0  0  0
   -7.6650   14.5530   -1.3470 O   0  0  0  0  0  0  0  0  0  0  0  0
   -6.4690   14.6760    1.9950 C   0  0  0  0  0  0  0  0  0  0  0  0
  1  2  1  0
  2  3  1  0
  2  4  2  0
  3  5  1  1
  3  6  1  0
  5  7  1  0
  6  8  1  0
  6  9  1  0
  7 10  2  0
  8 11  2  0
  9 12  2  0
 11 12  1  0
 11 13  1  0
 10 14  1  1
 10 15  2  0
 10 16  1  0
 16 17  2  0
 16 18  1  0
 17 19  1  0
 18 20  2  0
 19 21  2  0
 20 21  1  0
 21 22  1  0
 22 23  1  0
 22 24  2  0
 23 25  1  0
M  END
>  <comRMSD>  (475) 
0.450989

>  <∆∆G>  (475) 
-5.265592

>  <N_constrained_atoms>  (475) 
24.0

>  <LE>  (475) 
-0.210624

>  <ref_pdb>  (475) 
x0104_0

>  <ref_mols>  (475) 
x0855_0_A_α,x0591_0_A_α

>  <%Rank>  (475) 
8.13315

>  <generation_date>  (475) 
nan

>  <method>  (475) 
nan

>  <submitter_email>  (475) 
nan

>  <original SMILES>  (475) 
CNC(=O)c1ccc(S(N)(=O)=NCC(C(=O)O)n2cc(Br)cn2)cc1

>  <ref_url>  (475) 
nan

>  <submitter_name>  (475) 
nan

>  <submitter_institution>  (475) 
nan

$$$$
x0290_0_A_α-x0253_0_A_α
     RDKit          3D

 29 30  0  0  0  0  0  0  0  0999 V2000
   -7.8370   13.8260    1.0550 N   0  0  0  0  0  0  0  0  0  0  0  0
   -8.6350   14.9860    0.6900 C   0  0  0  0  0  0  0  0  0  0  0  0
   -6.6230   14.1790    1.8140 C   0  0  0  0  0  0  0  0  0  0  0  0
   -5.4360   14.5950    0.9360 C   0  0  0  0  0  0  0  0  0  0  0  0
   -5.5290   14.6990   -0.2920 O   0  0  0  0  0  0  0  0  0  0  0  0
   -4.2170   14.8490    1.4890 N   0  0  0  0  0  0  0  0  0  0  0  0
   -2.9540   14.6810    0.9600 C   0  0  0  0  0  0  0  0  0  0  0  0
   -1.9090   14.7710    1.8170 N   0  0  0  0  0  0  0  0  0  0  0  0
   -2.7650   14.4240   -0.3640 C   0  0  0  0  0  0  0  0  0  0  0  0
   -0.6570   14.6050    1.3330 C   0  0  0  0  0  0  0  0  0  0  0  0
   -1.4840   14.2510   -0.8350 C   0  0  0  0  0  0  0  0  0  0  0  0
   -1.2910   13.9270   -2.2600 C   0  0  0  0  0  0  0  0  0  0  0  0
   -0.3980   14.3490    0.0200 C   0  0  0  0  0  0  0  0  0  0  0  0
   -0.9950   12.4240   -2.2040 C   0  0  0  0  0  0  0  0  0  0  0  0
    0.4330   12.2080   -1.7100 C   0  0  0  0  0  0  0  0  0  0  0  0
    1.1770   12.9410   -2.6400 N   0  0  0  0  0  0  0  0  0  0  0  0
    0.8560   12.5570   -3.7710 C   0  0  0  0  0  0  0  0  0  0  0  0
    0.0120   11.5260   -3.9640 O   0  0  0  0  0  0  0  0  0  0  0  0
    1.3080   13.1670   -5.0370 C   0  0  0  0  0  0  0  0  0  0  0  0
    0.4790   12.5820   -6.0570 N   0  0  0  0  0  0  0  0  0  0  0  0
    1.1900   11.7310   -6.8030 C   0  0  0  0  0  0  0  0  0  0  0  0
    2.3710   11.7520   -6.6580 O   0  0  0  0  0  0  0  0  0  0  0  0
    0.5230   10.7920   -7.7440 C   0  0  0  0  0  0  0  0  0  0  0  0
   -0.4390    9.9080   -7.2420 C   0  0  0  0  0  0  0  0  0  0  0  0
    0.8410   10.7730   -9.1060 C   0  0  0  0  0  0  0  0  0  0  0  0
   -1.0850    9.0080   -8.1000 C   0  0  0  0  0  0  0  0  0  0  0  0
    0.2040    9.8810   -9.9600 C   0  0  0  0  0  0  0  0  0  0  0  0
   -2.1190    8.0610   -7.5630 C   0  0  0  0  0  0  0  0  0  0  0  0
   -0.7560    9.0020   -9.4610 C   0  0  0  0  0  0  0  0  0  0  0  0
  1  2  1  0
  1  3  1  0
  3  4  1  0
  4  5  2  0
  4  6  1  0
  6  7  1  0
  7  8  2  0
  7  9  1  0
  8 10  1  0
  9 11  2  0
 11 12  1  0
 10 13  2  0
 11 13  1  0
 12 14  1  0
 14 15  1  0
 15 16  1  0
 16 17  2  3
 17 18  1  0
 17 19  1  0
 19 20  1  0
 20 21  1  0
 21 22  2  0
 21 23  1  0
 23 24  2  0
 23 25  1  0
 24 26  1  0
 25 27  2  0
 26 28  1  0
 26 29  2  0
 27 29  1  0
M  END
>  <comRMSD>  (476) 
0.473866

>  <∆∆G>  (476) 
-9.601981

>  <N_constrained_atoms>  (476) 
27.0

>  <LE>  (476) 
-0.331103

>  <ref_pdb>  (476) 
x0104_0

>  <ref_mols>  (476) 
x0290_0_A_α,x0253_0_A_α

>  <%Rank>  (476) 
8.150309

>  <generation_date>  (476) 
nan

>  <method>  (476) 
nan

>  <submitter_email>  (476) 
nan

>  <original SMILES>  (476) 
CNCC(=O)Nc1cc(CCCN=C(O)CNC(=O)c2cccc(C)c2)ccn1

>  <ref_url>  (476) 
nan

>  <submitter_name>  (476) 
nan

>  <submitter_institution>  (476) 
nan

$$$$
x0371_0_A_β-x0766_0_A_α
     RDKit          3D

 21 24  0  0  0  0  0  0  0  0999 V2000
   -8.2730   14.6460    1.6410 C   0  0  0  0  0  0  0  0  0  0  0  0
   -6.9710   14.7320    0.9210 C   0  0  0  0  0  0  0  0  0  0  0  0
   -5.8130   14.7920    1.5160 N   0  0  0  0  0  0  0  0  0  0  0  0
   -6.9770   14.7780   -0.4640 N   0  0  0  0  0  0  0  0  0  0  0  0
   -4.9190   14.8160    0.4900 C   0  0  0  0  0  0  0  0  0  0  0  0
   -5.7150   14.8500   -0.7520 C   0  0  0  0  0  0  0  0  0  0  0  0
   -3.5750   14.7930    0.4800 C   0  0  0  0  0  0  0  0  0  0  0  0
   -5.0700   14.9180   -2.0600 C   0  0  0  0  0  0  0  0  0  0  0  0
   -2.9590   14.7640   -0.8230 C   0  0  0  0  0  0  0  0  0  0  0  0
   -3.7410   14.8550   -2.0490 C   0  0  0  0  0  0  0  0  0  0  0  0
   -2.8660   14.8210   -3.1720 C   0  0  0  0  0  0  0  0  0  0  0  0
   -1.6640   14.6310   -1.2240 C   0  0  0  0  0  0  0  0  0  0  0  0
   -1.6260   14.6450   -2.6970 C   0  0  0  0  0  0  0  0  0  0  0  0
   -0.4390   14.4880   -3.6020 C   0  0  2  0  0  0  0  0  0  0  0  0
    0.7750   13.7000   -3.1270 C   0  0  1  0  0  0  0  0  0  0  0  0
    0.2990   15.7420   -4.0330 C   0  0  0  0  0  0  0  0  0  0  0  0
    0.5470   12.3940   -2.4320 C   0  0  0  0  0  0  0  0  0  0  0  0
    1.5510   13.6580   -4.4230 C   0  0  0  0  0  0  0  0  0  0  0  0
    1.5030   15.1440   -4.7720 C   0  0  0  0  0  0  0  0  0  0  0  0
    0.6350   12.3190   -1.2330 O   0  0  0  0  0  0  0  0  0  0  0  0
    0.2460   11.3330   -3.2130 O   0  0  0  0  0  0  0  0  0  0  0  0
  1  2  1  0
  2  3  2  0
  2  4  1  0
  3  5  1  0
  4  6  2  0
  5  6  1  0
  5  7  2  0
  6  8  1  0
  7  9  1  0
  8 10  2  0
  9 10  1  0
 10 11  1  0
  9 12  2  0
 11 13  2  0
 12 13  1  0
 14 13  1  1
 14 15  1  0
 14 16  1  0
 15 17  1  6
 15 18  1  0
 16 19  1  0
 18 19  1  0
 17 20  2  0
 17 21  1  0
M  END
>  <comRMSD>  (477) 
0.562991

>  <∆∆G>  (477) 
-6.833666

>  <N_constrained_atoms>  (477) 
21.0

>  <LE>  (477) 
-0.325413

>  <ref_pdb>  (477) 
x0104_0

>  <ref_mols>  (477) 
x0371_0_A_β,x0766_0_A_α

>  <%Rank>  (477) 
8.167467

>  <generation_date>  (477) 
nan

>  <method>  (477) 
nan

>  <submitter_email>  (477) 
nan

>  <original SMILES>  (477) 
CC1=Nc2cc3c(cc2=N1)C=C(C1CCCC1C(=O)O)C=3

>  <ref_url>  (477) 
nan

>  <submitter_name>  (477) 
nan

>  <submitter_institution>  (477) 
nan

$$$$
3q6z_0_A_γ-5cb5_Q_0_Q_β
     RDKit          3D

 18 18  0  0  0  0  0  0  0  0999 V2000
   -1.0140   12.5390   -4.4300 O   0  0  0  0  0  0  0  0  0  0  0  0
   -0.7860   13.9570   -4.3520 C   0  0  1  0  0  0  0  0  0  0  0  0
   -1.1400   14.4560   -2.9560 C   0  0  0  0  0  0  0  0  0  0  0  0
    0.7060   14.2430   -4.4580 C   0  0  2  0  0  0  0  0  0  0  0  0
    1.4680   13.1220   -4.0290 O   0  0  0  0  0  0  0  0  0  0  0  0
   -0.0810   15.3200   -2.4950 O   0  0  0  0  0  0  0  0  0  0  0  0
    0.8780   15.4730   -3.5610 C   0  0  2  0  0  0  0  0  0  0  0  0
    0.7400   16.8580   -4.1780 C   0  0  0  0  0  0  0  0  0  0  0  0
    0.2660   16.8280   -5.5920 C   0  0  0  0  0  0  0  0  0  0  0  0
   -1.1260   17.0140   -5.5160 O   0  0  0  0  0  0  0  0  0  0  0  0
   -1.7330   18.3530   -6.0780 P   0  0  1  0  0  0  0  0  0  0  0  0
   -0.4780   19.2110   -6.4490 O   0  0  0  0  0  0  0  0  0  0  0  0
   -2.7800   18.1710   -7.0790 O   0  0  0  0  0  0  0  0  0  0  0  0
   -2.2380   19.1870   -4.8160 O   0  0  0  0  0  0  0  0  0  0  0  0
   -0.2330   19.9120   -7.8190 P   0  0  0  0  0  0  0  0  0  0  0  0
   -1.6620   20.4440   -8.2780 O   0  0  0  0  0  0  0  0  0  0  0  0
    0.8070   20.9640   -7.7890 O   0  0  0  0  0  0  0  0  0  0  0  0
    0.0060   18.7150   -8.8570 O   0  0  0  0  0  0  0  0  0  0  0  0
  2  1  1  1
  2  3  1  0
  2  4  1  0
  4  5  1  1
  3  6  1  0
  4  7  1  0
  6  7  1  0
  7  8  1  6
  8  9  1  0
  9 10  1  0
 10 11  1  0
 11 12  1  0
 11 13  2  0
 11 14  1  1
 12 15  1  0
 15 16  1  0
 15 17  2  0
 15 18  1  0
M  END
>  <comRMSD>  (478) 
0.508612

>  <∆∆G>  (478) 
-12.025921

>  <N_constrained_atoms>  (478) 
17.0

>  <LE>  (478) 
-0.668107

>  <ref_pdb>  (478) 
x0104_0

>  <ref_mols>  (478) 


>  <%Rank>  (478) 
8.184626

>  <generation_date>  (478) 
nan

>  <method>  (478) 
nan

>  <submitter_email>  (478) 
nan

>  <original SMILES>  (478) 
O=P(O)(O)OP(=O)(O)OCCC1OCC(O)C1O

>  <ref_url>  (478) 
nan

>  <submitter_name>  (478) 
nan

>  <submitter_institution>  (478) 
nan

$$$$
5CB5_0_E_α-5dus_0_A_β
     RDKit          3D

 17 17  0  0  0  0  0  0  0  0999 V2000
   -1.6150   21.7800   -7.9570 C   0  0  0  0  0  0  0  0  0  0  0  0
   -0.6120   20.3030   -7.6950 P   0  0  2  0  0  0  0  0  0  0  0  0
   -1.0950   19.7190   -6.2990 O   0  0  0  0  0  0  0  0  0  0  0  0
   -2.9410   21.8050   -8.7190 C   0  0  1  0  0  0  0  0  0  0  0  0
    0.8470   20.5810   -7.6610 O   0  0  0  0  0  0  0  0  0  0  0  0
   -0.9660   19.0840   -8.6830 O   0  0  0  0  0  0  0  0  0  0  0  0
   -3.9460   21.0740   -8.0160 O   0  0  0  0  0  0  0  0  0  0  0  0
   -3.5600   23.2060   -8.8340 C   0  0  1  0  0  0  0  0  0  0  0  0
   -4.3830   23.3610   -9.9950 O   0  0  0  0  0  0  0  0  0  0  0  0
   -1.6020   18.2500   -5.9910 P   0  0  0  0  0  0  0  0  0  0  0  0
   -4.5620   21.9300   -7.0480 C   0  0  1  0  0  0  0  0  0  0  0  0
   -4.4000   23.3730   -7.5710 C   0  0  2  0  0  0  0  0  0  0  0  0
   -5.9120   21.5380   -6.7870 O   0  0  0  0  0  0  0  0  0  0  0  0
   -5.6520   23.9660   -7.9420 O   0  0  0  0  0  0  0  0  0  0  0  0
   -0.3160   17.3270   -5.8630 O   0  0  0  0  0  0  0  0  0  0  0  0
   -2.6940   17.6580   -6.7980 O   0  0  0  0  0  0  0  0  0  0  0  0
   -1.9340   18.4030   -4.4620 O   0  0  0  0  0  0  0  0  0  0  0  0
  1  2  1  0
  2  3  1  0
  4  1  1  1
  2  5  2  0
  2  6  1  6
  4  7  1  0
  4  8  1  0
  8  9  1  6
  3 10  1  0
  7 11  1  0
  8 12  1  0
 11 12  1  0
 11 13  1  6
 12 14  1  6
 10 15  1  0
 10 16  2  0
 10 17  1  0
M  END
>  <comRMSD>  (479) 
0.70461

>  <∆∆G>  (479) 
-13.017844

>  <N_constrained_atoms>  (479) 
17.0

>  <LE>  (479) 
-0.765756

>  <ref_pdb>  (479) 
x0104_0

>  <ref_mols>  (479) 


>  <%Rank>  (479) 
8.201784

>  <generation_date>  (479) 
nan

>  <method>  (479) 
nan

>  <submitter_email>  (479) 
nan

>  <original SMILES>  (479) 
O=P(O)(O)OP(=O)(O)CC1OC(O)C(O)C1O

>  <ref_url>  (479) 
nan

>  <submitter_name>  (479) 
nan

>  <submitter_institution>  (479) 
nan

$$$$
x0895_1_A_α-x0371_0_A_α
     RDKit          3D

 16 17  0  0  0  0  0  0  0  0999 V2000
   -1.6430   14.7170    1.5320 O   0  0  0  0  0  0  0  0  0  0  0  0
   -2.7640   14.7190    1.0290 C   0  0  0  0  0  0  0  0  0  0  0  0
   -3.1220   14.6390   -0.4580 C   0  0  0  0  0  0  0  0  0  0  0  0
   -3.9490   14.7960    1.7060 N   0  0  0  0  0  0  0  0  0  0  0  0
   -4.5500   14.9150   -0.4110 N   0  0  0  0  0  0  0  0  0  0  0  0
   -5.0100   14.7740    0.8640 C   0  0  0  0  0  0  0  0  0  0  0  0
   -6.2580   14.6490    1.1810 N   0  0  0  0  0  0  0  0  0  0  0  0
   -6.6500   14.5080    2.5860 C   0  0  0  0  0  0  0  0  0  0  0  0
   -8.0890   14.5210    2.7230 N   0  0  0  0  0  0  0  0  0  0  0  0
   -8.7650   15.5230    3.4130 C   0  0  0  0  0  0  0  0  0  0  0  0
   -9.4360   16.3530    2.8010 O   0  0  0  0  0  0  0  0  0  0  0  0
   -8.6480   15.5300    4.8670 C   0  0  0  0  0  0  0  0  0  0  0  0
   -8.2140   14.3940    5.4890 O   0  0  0  0  0  0  0  0  0  0  0  0
   -8.8960   16.4920    5.8350 C   0  0  0  0  0  0  0  0  0  0  0  0
   -8.1780   14.6260    6.8240 C   0  0  0  0  0  0  0  0  0  0  0  0
   -8.5920   15.9060    7.0920 C   0  0  0  0  0  0  0  0  0  0  0  0
  1  2  2  0
  2  3  1  0
  2  4  1  0
  3  5  1  0
  4  6  1  0
  5  6  1  0
  6  7  2  3
  7  8  1  0
  8  9  1  0
  9 10  1  0
 10 11  2  0
 10 12  1  0
 12 13  1  0
 12 14  2  0
 13 15  1  0
 14 16  1  0
 15 16  2  0
M  END
>  <comRMSD>  (480) 
0.274457

>  <∆∆G>  (480) 
-5.296171

>  <N_constrained_atoms>  (480) 
15.0

>  <LE>  (480) 
-0.331011

>  <ref_pdb>  (480) 
x0104_0

>  <ref_mols>  (480) 
x0895_1_A_α,x0371_0_A_α

>  <%Rank>  (480) 
8.218943

>  <generation_date>  (480) 
nan

>  <method>  (480) 
nan

>  <submitter_email>  (480) 
nan

>  <original SMILES>  (480) 
O=C1CNC(=NCNC(=O)c2ccco2)N1

>  <ref_url>  (480) 
nan

>  <submitter_name>  (480) 
nan

>  <submitter_institution>  (480) 
nan

$$$$
x0574_0_A_α-x0895_0_A_α
     RDKit          3D

 12 13  0  0  0  0  0  0  0  0999 V2000
    0.1450   14.0420    2.1100 N   0  0  0  0  0  0  0  0  0  0  0  0
   -0.9270   14.2980    1.3890 C   0  0  0  0  0  0  0  0  0  0  0  0
   -2.0640   14.3090    1.9670 N   0  0  0  0  0  0  0  0  0  0  0  0
   -0.9320   14.6220   -0.2930 S   0  0  0  0  0  0  0  0  0  0  0  0
   -3.0550   14.5620    1.0810 C   0  0  0  0  0  0  0  0  0  0  0  0
   -2.6580   14.7710   -0.2280 C   0  0  0  0  0  0  0  0  0  0  0  0
   -4.4000   14.6130    1.4210 C   0  0  0  0  0  0  0  0  0  0  0  0
   -3.6050   15.0450   -1.2300 C   0  0  0  0  0  0  0  0  0  0  0  0
   -5.3520   14.8680    0.4660 C   0  0  0  0  0  0  0  0  0  0  0  0
   -4.9600   15.0880   -0.8550 C   0  0  0  0  0  0  0  0  0  0  0  0
   -6.6860   14.9150    0.7460 O   0  0  0  0  0  0  0  0  0  0  0  0
   -7.0210   14.5780    2.0950 C   0  0  0  0  0  0  0  0  0  0  0  0
  1  2  1  0
  2  3  2  0
  2  4  1  0
  3  5  1  0
  4  6  1  0
  5  6  2  0
  5  7  1  0
  6  8  1  0
  7  9  2  0
  8 10  2  0
  9 10  1  0
  9 11  1  0
 11 12  1  0
M  END
>  <comRMSD>  (481) 
0.545621

>  <∆∆G>  (481) 
-8.404064

>  <N_constrained_atoms>  (481) 
12.0

>  <LE>  (481) 
-0.700339

>  <ref_pdb>  (481) 
x0104_0

>  <ref_mols>  (481) 
x0574_0_A_α,x0895_0_A_α

>  <%Rank>  (481) 
8.236102

>  <generation_date>  (481) 
nan

>  <method>  (481) 
nan

>  <submitter_email>  (481) 
nan

>  <original SMILES>  (481) 
COc1ccc2sc(N)nc2c1

>  <ref_url>  (481) 
nan

>  <submitter_name>  (481) 
nan

>  <submitter_institution>  (481) 
nan

$$$$
x0371_0_A_α-x0969_0_A_α
     RDKit          3D

 17 19  0  0  0  0  0  0  0  0999 V2000
   -7.1660   14.7370    2.6830 N   0  0  0  0  0  0  0  0  0  0  0  0
   -8.2360   15.3640    3.3530 C   0  0  0  0  0  0  0  0  0  0  0  0
   -9.1120   15.8980    2.6540 O   0  0  0  0  0  0  0  0  0  0  0  0
   -6.9020   14.7440    1.3050 C   0  0  0  0  0  0  0  0  0  0  0  0
   -8.3260   15.4030    4.8060 C   0  0  0  0  0  0  0  0  0  0  0  0
   -7.7750   14.5720    0.3340 N   0  0  0  0  0  0  0  0  0  0  0  0
   -5.6360   14.9450    0.7030 N   0  0  0  0  0  0  0  0  0  0  0  0
   -7.8760   14.3480    5.5480 O   0  0  0  0  0  0  0  0  0  0  0  0
   -8.8180   16.3760    5.6680 C   0  0  0  0  0  0  0  0  0  0  0  0
   -7.1390   14.6490   -0.8830 N   0  0  0  0  0  0  0  0  0  0  0  0
   -5.8660   14.8680   -0.6690 C   0  0  0  0  0  0  0  0  0  0  0  0
   -4.3450   15.1820    1.2140 C   0  0  0  0  0  0  0  0  0  0  0  0
   -8.0700   14.6440    6.8570 C   0  0  0  0  0  0  0  0  0  0  0  0
   -8.6490   15.8790    6.9840 C   0  0  0  0  0  0  0  0  0  0  0  0
   -4.7690   15.0240   -1.5600 C   0  0  0  0  0  0  0  0  0  0  0  0
   -3.3080   15.3170    0.3690 C   0  0  0  0  0  0  0  0  0  0  0  0
   -3.5400   15.2330   -1.0670 C   0  0  0  0  0  0  0  0  0  0  0  0
  1  2  1  0
  2  3  2  0
  1  4  1  0
  2  5  1  0
  4  6  2  0
  4  7  1  0
  5  8  1  0
  5  9  2  0
  6 10  1  0
  7 11  1  0
 10 11  2  0
  7 12  1  0
  8 13  1  0
  9 14  1  0
 13 14  2  0
 11 15  1  0
 12 16  2  0
 15 17  2  0
 16 17  1  0
M  END
>  <comRMSD>  (482) 
0.495487

>  <∆∆G>  (482) 
-5.893663

>  <N_constrained_atoms>  (482) 
17.0

>  <LE>  (482) 
-0.346686

>  <ref_pdb>  (482) 
x0104_0

>  <ref_mols>  (482) 
x0371_0_A_α,x0969_0_A_α

>  <%Rank>  (482) 
8.25326

>  <generation_date>  (482) 
nan

>  <method>  (482) 
nan

>  <submitter_email>  (482) 
nan

>  <original SMILES>  (482) 
O=C(Nc1nnc2ccccn12)c1ccco1

>  <ref_url>  (482) 
nan

>  <submitter_name>  (482) 
nan

>  <submitter_institution>  (482) 
nan

$$$$
x0724_0_A_α-x0855_0_A_α
     RDKit          3D

 27 29  0  0  0  0  0  0  0  0999 V2000
   -8.6570   13.8340    4.3300 N   0  0  0  0  0  0  0  0  0  0  0  0
   -8.4730   13.9540    5.7690 C   0  0  0  0  0  0  0  0  0  0  0  0
   -8.4180   15.0920    3.6260 C   0  0  0  0  0  0  0  0  0  0  0  0
   -7.7600   14.8680    2.3070 C   0  0  0  0  0  0  0  0  0  0  0  0
   -6.4210   14.9360    2.0180 C   0  0  0  0  0  0  0  0  0  0  0  0
   -8.3440   14.5460    1.0630 C   0  0  0  0  0  0  0  0  0  0  0  0
   -7.4420   14.4250    0.0820 N   0  0  0  0  0  0  0  0  0  0  0  0
   -6.2450   14.6700    0.6830 N   0  0  0  0  0  0  0  0  0  0  0  0
   -5.0080   14.6380   -0.0200 C   0  0  0  0  0  0  0  0  0  0  0  0
   -3.8100   14.7330    0.7080 C   0  0  0  0  0  0  0  0  0  0  0  0
   -4.9550   14.5050   -1.4110 C   0  0  0  0  0  0  0  0  0  0  0  0
   -2.5760   14.6830    0.0550 C   0  0  0  0  0  0  0  0  0  0  0  0
   -3.7160   14.4570   -2.0620 C   0  0  0  0  0  0  0  0  0  0  0  0
   -2.5160   14.5380   -1.3370 C   0  0  0  0  0  0  0  0  0  0  0  0
   -1.1790   14.4610   -2.0470 C   0  0  0  0  0  0  0  0  0  0  0  0
   -0.0500   13.7750   -1.2540 C   0  0  0  0  0  0  0  0  0  0  0  0
    1.3440   14.0330   -1.8350 C   0  0  0  0  0  0  0  0  0  0  0  0
    1.8700   12.8980   -2.5440 O   0  0  0  0  0  0  0  0  0  0  0  0
    0.9960   12.0860   -3.1950 C   0  0  0  0  0  0  0  0  0  0  0  0
    0.5440   11.0500   -2.7100 O   0  0  0  0  0  0  0  0  0  0  0  0
    0.6220   12.5500   -4.5770 C   0  0  0  0  0  0  0  0  0  0  0  0
   -0.4280   11.7120   -5.1130 N   0  0  0  0  0  0  0  0  0  0  0  0
   -0.3090   10.7740   -6.0970 C   0  0  0  0  0  0  0  0  0  0  0  0
   -1.6840   11.8150   -4.6220 N   0  0  0  0  0  0  0  0  0  0  0  0
   -1.5540   10.2340   -6.2400 C   0  0  0  0  0  0  0  0  0  0  0  0
   -2.3700   10.9030   -5.3180 C   0  0  0  0  0  0  0  0  0  0  0  0
   -2.0900    8.8820   -7.4050 Br  0  0  0  0  0  0  0  0  0  0  0  0
  1  2  1  0
  1  3  1  0
  3  4  1  0
  4  5  2  0
  4  6  1  0
  6  7  2  0
  5  8  1  0
  7  8  1  0
  8  9  1  0
  9 10  2  0
  9 11  1  0
 10 12  1  0
 11 13  2  0
 12 14  2  0
 13 14  1  0
 14 15  1  0
 15 16  1  0
 16 17  1  0
 17 18  1  0
 18 19  1  0
 19 20  2  0
 19 21  1  0
 21 22  1  0
 22 23  1  0
 22 24  1  0
 23 25  2  0
 24 26  2  0
 25 26  1  0
 25 27  1  0
M  END
>  <comRMSD>  (483) 
0.267809

>  <∆∆G>  (483) 
-6.960902

>  <N_constrained_atoms>  (483) 
24.0

>  <LE>  (483) 
-0.257811

>  <ref_pdb>  (483) 
x0104_0

>  <ref_mols>  (483) 
x0724_0_A_α,x0855_0_A_α

>  <%Rank>  (483) 
8.270419

>  <generation_date>  (483) 
nan

>  <method>  (483) 
nan

>  <submitter_email>  (483) 
nan

>  <original SMILES>  (483) 
CNCc1cnn(-c2ccc(CCCOC(=O)Cn3cc(Br)cn3)cc2)c1

>  <ref_url>  (483) 
nan

>  <submitter_name>  (483) 
nan

>  <submitter_institution>  (483) 
nan

$$$$
5CB5_0_D_γ-x0685_1_A_α
     RDKit          3D

 20 21  0  0  0  0  0  0  0  0999 V2000
   -0.3380   12.6170   -4.0120 N   0  0  0  0  0  0  0  0  0  0  0  0
   -1.4560   11.8520   -4.5740 C   0  0  0  0  0  0  0  0  0  0  0  0
   -1.0190   10.4930   -4.8770 N   0  0  0  0  0  0  0  0  0  0  0  0
    0.5130   12.0090   -2.6970 S   0  0  0  0  0  0  0  0  0  0  0  0
   -0.4440   14.0710   -4.2490 C   0  0  1  0  0  0  0  0  0  0  0  0
    2.0700   12.2870   -2.8920 O   0  0  0  0  0  0  0  0  0  0  0  0
    0.3200   10.4330   -2.5000 O   0  0  0  0  0  0  0  0  0  0  0  0
    0.1240   12.6640   -1.2950 O   0  0  0  0  0  0  0  0  0  0  0  0
   -0.5700   14.9280   -3.0010 C   0  0  0  0  0  0  0  0  0  0  0  0
    0.8270   14.6380   -4.8440 C   0  0  1  0  0  0  0  0  0  0  0  0
    0.9210   14.3000   -6.1910 O   0  0  0  0  0  0  0  0  0  0  0  0
   -0.0940   16.2360   -3.3730 O   0  0  0  0  0  0  0  0  0  0  0  0
    0.8200   16.1280   -4.4790 C   0  0  2  0  0  0  0  0  0  0  0  0
   -1.2660   10.0100   -6.2540 C   0  0  0  0  0  0  0  0  0  0  0  0
    0.4460   17.1550   -5.5450 C   0  0  0  0  0  0  0  0  0  0  0  0
   -0.1240    9.1400   -6.7700 C   0  0  0  0  0  0  0  0  0  0  0  0
   -1.4750   11.1500   -7.2710 C   0  0  0  0  0  0  0  0  0  0  0  0
   -0.4380    8.4210   -8.0690 C   0  0  0  0  0  0  0  0  0  0  0  0
   -1.1140   10.7850   -8.7230 C   0  0  0  0  0  0  0  0  0  0  0  0
   -1.2330    9.2950   -9.0380 C   0  0  0  0  0  0  0  0  0  0  0  0
  1  2  1  0
  2  3  1  0
  1  4  1  0
  5  1  1  1
  4  6  1  0
  4  7  1  0
  4  8  1  0
  5  9  1  0
  5 10  1  0
 10 11  1  6
  9 12  1  0
 10 13  1  0
 12 13  1  0
  3 14  1  0
 13 15  1  6
 14 16  1  0
 14 17  1  0
 16 18  1  0
 17 19  1  0
 18 20  1  0
 19 20  1  0
M  END
>  <comRMSD>  (484) 
0.545881

>  <∆∆G>  (484) 
-6.504833

>  <N_constrained_atoms>  (484) 
20.0

>  <LE>  (484) 
-0.325242

>  <ref_pdb>  (484) 
x0104_0

>  <ref_mols>  (484) 
x0685_1_A_α

>  <%Rank>  (484) 
8.287577

>  <generation_date>  (484) 
nan

>  <method>  (484) 
nan

>  <submitter_email>  (484) 
nan

>  <original SMILES>  (484) 
CC1OCC(N(CNC2CCCCC2)S(O)(O)O)C1O

>  <ref_url>  (484) 
nan

>  <submitter_name>  (484) 
nan

>  <submitter_institution>  (484) 
nan

$$$$
x1015_0_A_α-x0962_0_A_α
     RDKit          3D

 23 25  0  0  0  0  0  0  0  0999 V2000
   -1.5130   14.1710   -4.2900 C   0  0  0  0  0  0  0  0  0  0  0  0
   -0.1220   13.5690   -4.0770 C   0  0  2  0  0  0  0  0  0  0  0  0
   -0.1910   12.1190   -3.9660 N   0  0  0  0  0  0  0  0  0  0  0  0
    0.4190   13.8530   -2.6910 C   0  0  0  0  0  0  0  0  0  0  0  0
    0.3200   14.8740   -1.9500 N   0  0  0  0  0  0  0  0  0  0  0  0
    0.4200   11.6850   -2.7660 C   0  0  0  0  0  0  0  0  0  0  0  0
    1.0870   12.7630   -2.2690 N   0  0  0  0  0  0  0  0  0  0  0  0
   -0.5520   11.3270   -5.0740 C   0  0  0  0  0  0  0  0  0  0  0  0
    0.4020   10.5850   -2.2090 O   0  0  0  0  0  0  0  0  0  0  0  0
   -0.4710   15.9760   -2.4510 C   0  0  0  0  0  0  0  0  0  0  0  0
    0.0240   11.5340   -6.3330 C   0  0  0  0  0  0  0  0  0  0  0  0
   -1.5060   10.3070   -4.9400 C   0  0  0  0  0  0  0  0  0  0  0  0
   -1.7730   15.7330   -1.8300 C   0  0  0  0  0  0  0  0  0  0  0  0
   -0.3410   10.7510   -7.4310 C   0  0  0  0  0  0  0  0  0  0  0  0
   -1.8730    9.5220   -6.0330 C   0  0  0  0  0  0  0  0  0  0  0  0
   -2.7620   15.5280   -1.1950 C   0  0  0  0  0  0  0  0  0  0  0  0
   -1.2910    9.7470   -7.2730 C   0  0  0  0  0  0  0  0  0  0  0  0
   -1.7490    8.7780   -8.6150 Cl  0  0  0  0  0  0  0  0  0  0  0  0
   -3.8400   15.3330   -0.3170 C   0  0  0  0  0  0  0  0  0  0  0  0
   -3.7390   15.5570    1.0180 N   0  0  0  0  0  0  0  0  0  0  0  0
   -5.1330   14.9200   -0.5260 C   0  0  0  0  0  0  0  0  0  0  0  0
   -4.9480   15.2800    1.5690 C   0  0  0  0  0  0  0  0  0  0  0  0
   -5.8170   14.8890    0.6640 N   0  0  0  0  0  0  0  0  0  0  0  0
  2  1  1  1
  2  3  1  0
  2  4  1  0
  4  5  2  3
  3  6  1  0
  4  7  1  0
  6  7  1  0
  3  8  1  0
  6  9  2  0
  5 10  1  0
  8 11  2  0
  8 12  1  0
 10 13  1  0
 11 14  1  0
 12 15  2  0
 13 16  3  0
 14 17  2  0
 15 17  1  0
 17 18  1  0
 16 19  1  0
 19 20  1  0
 19 21  2  0
 20 22  1  0
 21 23  1  0
 22 23  2  0
M  END
>  <comRMSD>  (485) 
0.419667

>  <∆∆G>  (485) 
-5.257328

>  <N_constrained_atoms>  (485) 
22.0

>  <LE>  (485) 
-0.228579

>  <ref_pdb>  (485) 
x0104_0

>  <ref_mols>  (485) 
x1015_0_A_α,x0962_0_A_α

>  <%Rank>  (485) 
8.304736

>  <generation_date>  (485) 
nan

>  <method>  (485) 
nan

>  <submitter_email>  (485) 
nan

>  <original SMILES>  (485) 
CC1C(=NCC#Cc2cnc[nH]2)NC(=O)N1c1ccc(Cl)cc1

>  <ref_url>  (485) 
nan

>  <submitter_name>  (485) 
nan

>  <submitter_institution>  (485) 
nan

$$$$
x1015_0_A_α-x0900_1_A_α
     RDKit          3D

 19 21  0  0  0  0  0  0  0  0999 V2000
   -1.2600   14.5950   -4.1600 C   0  0  0  0  0  0  0  0  0  0  0  0
    0.0300   13.8550   -3.8150 C   0  0  2  0  0  0  0  0  0  0  0  0
   -0.1260   12.4160   -3.7490 N   0  0  0  0  0  0  0  0  0  0  0  0
    0.4060   14.1260   -2.3650 C   0  0  0  0  0  0  0  0  0  0  0  0
    0.4820   15.2210   -1.8350 O   0  0  0  0  0  0  0  0  0  0  0  0
    0.2900   11.8950   -2.5190 C   0  0  0  0  0  0  0  0  0  0  0  0
    0.6480   12.9490   -1.7400 N   0  0  0  0  0  0  0  0  0  0  0  0
   -0.5300   11.6300   -4.8280 C   0  0  0  0  0  0  0  0  0  0  0  0
    0.3430   10.7150   -2.1480 O   0  0  0  0  0  0  0  0  0  0  0  0
   -0.0070   11.8240   -6.1090 C   0  0  0  0  0  0  0  0  0  0  0  0
   -1.4660   10.6250   -4.6190 C   0  0  0  0  0  0  0  0  0  0  0  0
   -0.4160   11.0140   -7.1580 C   0  0  0  0  0  0  0  0  0  0  0  0
   -1.8730    9.8190   -5.6580 C   0  0  0  0  0  0  0  0  0  0  0  0
   -1.3490   10.0060   -6.9240 C   0  0  0  0  0  0  0  0  0  0  0  0
   -1.8060    9.0870   -7.9770 C   0  0  1  0  0  0  0  0  0  0  0  0
   -0.7940    9.0490   -9.0990 C   0  0  0  0  0  0  0  0  0  0  0  0
   -1.6470    7.6840   -7.4380 C   0  0  0  0  0  0  0  0  0  0  0  0
    0.3720    8.4630   -8.4080 N   0  0  0  0  0  0  0  0  0  0  0  0
   -0.1360    7.6830   -7.2540 C   0  0  0  0  0  0  0  0  0  0  0  0
  2  1  1  1
  2  3  1  0
  2  4  1  0
  4  5  2  0
  3  6  1  0
  4  7  1  0
  6  7  1  0
  3  8  1  0
  6  9  2  0
  8 10  2  0
  8 11  1  0
 10 12  1  0
 11 13  2  0
 12 14  2  0
 13 14  1  0
 15 14  1  1
 15 16  1  0
 15 17  1  0
 16 18  1  0
 17 19  1  0
 18 19  1  0
M  END
>  <comRMSD>  (486) 
0.47121

>  <∆∆G>  (486) 
-4.054489

>  <N_constrained_atoms>  (486) 
19.0

>  <LE>  (486) 
-0.213394

>  <ref_pdb>  (486) 
x0104_0

>  <ref_mols>  (486) 
x1015_0_A_α,x0900_1_A_α

>  <%Rank>  (486) 
8.321894

>  <generation_date>  (486) 
nan

>  <method>  (486) 
nan

>  <submitter_email>  (486) 
nan

>  <original SMILES>  (486) 
CC1C(=O)NC(=O)N1c1ccc(C2CCNC2)cc1

>  <ref_url>  (486) 
nan

>  <submitter_name>  (486) 
nan

>  <submitter_institution>  (486) 
nan

$$$$
x0950_1_A_α-x0591_0_A_α
     RDKit          3D

 21 21  0  0  0  0  0  0  0  0999 V2000
    1.4670   14.1820   -4.4620 C   0  0  0  0  0  0  0  0  0  0  0  0
    1.3890   12.6640   -4.5060 C   0  0  2  0  0  0  0  0  0  0  0  0
    0.3390   12.3710   -5.4130 O   0  0  0  0  0  0  0  0  0  0  0  0
    1.0800   12.1040   -3.0990 C   0  0  0  0  0  0  0  0  0  0  0  0
    0.4610   11.0650   -2.9010 O   0  0  0  0  0  0  0  0  0  0  0  0
    1.5480   12.8660   -2.0840 O   0  0  0  0  0  0  0  0  0  0  0  0
   -0.9190   12.4830   -4.7620 C   0  0  0  0  0  0  0  0  0  0  0  0
   -1.9560   13.1970   -5.5100 N   0  0  0  0  0  0  0  0  0  0  0  0
   -2.4260   14.6040   -5.1140 S   0  0  1  0  0  0  0  0  0  0  0  0
   -0.9850   15.3600   -4.7330 N   0  0  0  0  0  0  0  0  0  0  0  0
   -2.9880   15.5470   -6.0430 O   0  0  0  0  0  0  0  0  0  0  0  0
   -3.4700   14.6170   -3.6890 C   0  0  0  0  0  0  0  0  0  0  0  0
   -2.9830   14.4630   -2.3880 C   0  0  0  0  0  0  0  0  0  0  0  0
   -4.8260   14.7970   -3.9110 C   0  0  0  0  0  0  0  0  0  0  0  0
   -3.8870   14.4980   -1.3110 C   0  0  0  0  0  0  0  0  0  0  0  0
   -5.7160   14.8360   -2.8480 C   0  0  0  0  0  0  0  0  0  0  0  0
   -5.2590   14.6870   -1.5460 C   0  0  0  0  0  0  0  0  0  0  0  0
   -6.2250   14.7270   -0.4080 C   0  0  0  0  0  0  0  0  0  0  0  0
   -5.7470   14.5570    0.8610 N   0  0  0  0  0  0  0  0  0  0  0  0
   -7.4200   14.9060   -0.6470 O   0  0  0  0  0  0  0  0  0  0  0  0
   -6.6760   14.5050    1.9720 C   0  0  0  0  0  0  0  0  0  0  0  0
  2  1  1  1
  2  3  1  0
  2  4  1  0
  4  5  2  0
  4  6  1  0
  3  7  1  0
  7  8  1  0
  8  9  2  0
  9 10  1  1
  9 11  2  0
  9 12  1  0
 12 13  2  0
 12 14  1  0
 13 15  1  0
 14 16  2  0
 15 17  2  0
 16 17  1  0
 17 18  1  0
 18 19  1  0
 18 20  2  0
 19 21  1  0
M  END
>  <comRMSD>  (487) 
0.370229

>  <∆∆G>  (487) 
-4.681327

>  <N_constrained_atoms>  (487) 
20.0

>  <LE>  (487) 
-0.22292

>  <ref_pdb>  (487) 
x0104_0

>  <ref_mols>  (487) 
x0950_1_A_α,x0591_0_A_α

>  <%Rank>  (487) 
8.339053

>  <generation_date>  (487) 
nan

>  <method>  (487) 
nan

>  <submitter_email>  (487) 
nan

>  <original SMILES>  (487) 
CNC(=O)c1ccc(S(N)(=O)=NCO[C@@H](C)C(=O)O)cc1

>  <ref_url>  (487) 
nan

>  <submitter_name>  (487) 
nan

>  <submitter_institution>  (487) 
nan

$$$$
x0128_0_A_α-x0900_0_A_α
     RDKit          3D

 16 17  0  0  0  0  0  0  0  0999 V2000
   -6.6250   14.7700    2.5060 N   0  0  0  0  0  0  0  0  0  0  0  0
   -7.9270   15.0590    2.7940 C   0  0  0  0  0  0  0  0  0  0  0  0
   -8.8830   14.8860    2.0590 O   0  0  0  0  0  0  0  0  0  0  0  0
   -5.9930   14.8990    1.2530 C   0  0  0  0  0  0  0  0  0  0  0  0
   -8.2150   15.6110    3.9700 N   0  0  0  0  0  0  0  0  0  0  0  0
   -6.7980   14.7500    0.1170 C   0  0  0  0  0  0  0  0  0  0  0  0
   -4.6340   15.1760    1.0930 C   0  0  0  0  0  0  0  0  0  0  0  0
   -6.2530   14.8800   -1.1630 C   0  0  0  0  0  0  0  0  0  0  0  0
   -4.0920   15.3030   -0.1910 C   0  0  0  0  0  0  0  0  0  0  0  0
   -8.7090   16.1980    5.1070 C   0  0  0  0  0  0  0  0  0  0  0  0
   -4.9000   15.1570   -1.3170 C   0  0  0  0  0  0  0  0  0  0  0  0
   -9.3500   17.4210    4.9470 C   0  0  0  0  0  0  0  0  0  0  0  0
   -8.6400   15.6720    6.4000 C   0  0  0  0  0  0  0  0  0  0  0  0
   -9.9120   18.1290    5.9460 N   0  0  0  0  0  0  0  0  0  0  0  0
   -9.2150   16.3880    7.4520 C   0  0  0  0  0  0  0  0  0  0  0  0
   -9.8340   17.5980    7.1770 C   0  0  0  0  0  0  0  0  0  0  0  0
  1  2  1  0
  2  3  2  0
  1  4  1  0
  2  5  1  0
  4  6  2  0
  4  7  1  0
  6  8  1  0
  7  9  2  0
  5 10  1  0
  8 11  2  0
  9 11  1  0
 10 12  2  0
 10 13  1  0
 12 14  1  0
 13 15  2  0
 14 16  2  0
 15 16  1  0
M  END
>  <comRMSD>  (488) 
0.469204

>  <∆∆G>  (488) 
-5.398786

>  <N_constrained_atoms>  (488) 
16.0

>  <LE>  (488) 
-0.337424

>  <ref_pdb>  (488) 
x0104_0

>  <ref_mols>  (488) 
x0128_0_A_α,x0900_0_A_α

>  <%Rank>  (488) 
8.356211

>  <generation_date>  (488) 
nan

>  <method>  (488) 
nan

>  <submitter_email>  (488) 
nan

>  <original SMILES>  (488) 
O=C(Nc1ccccc1)Nc1cccnc1

>  <ref_url>  (488) 
nan

>  <submitter_name>  (488) 
nan

>  <submitter_institution>  (488) 
nan

$$$$
x0864_0_A_α-x0676_0_B_α
     RDKit          3D

 28 30  0  0  0  0  0  0  0  0999 V2000
    1.6480   11.9360   -6.7070 O   0  0  0  0  0  0  0  0  0  0  0  0
    0.5680   11.4090   -6.4570 C   0  0  0  0  0  0  0  0  0  0  0  0
   -0.1790   11.7650   -5.3550 N   0  0  0  0  0  0  0  0  0  0  0  0
    0.0280   10.3490   -7.3300 C   0  0  0  0  0  0  0  0  0  0  0  0
    0.4080   12.7670   -4.4710 C   0  0  0  0  0  0  0  0  0  0  0  0
   -1.3150   11.0610   -4.9880 C   0  0  0  0  0  0  0  0  0  0  0  0
   -1.0970    9.7060   -6.9850 C   0  0  0  0  0  0  0  0  0  0  0  0
    0.6320   12.2550   -3.0550 C   0  0  0  0  0  0  0  0  0  0  0  0
   -1.7080    8.7030   -7.7000 O   0  0  0  0  0  0  0  0  0  0  0  0
   -1.7790   10.0610   -5.7580 C   0  0  0  0  0  0  0  0  0  0  0  0
    0.2090   10.9850   -2.8350 O   0  0  0  0  0  0  0  0  0  0  0  0
    1.1470   12.9230   -2.1750 O   0  0  0  0  0  0  0  0  0  0  0  0
   -1.7830    8.8560   -9.1230 C   0  0  0  0  0  0  0  0  0  0  0  0
   -0.7960    7.9180   -9.8410 C   0  0  0  0  0  0  0  0  0  0  0  0
    0.6780    8.1440   -9.4700 C   0  0  0  0  0  0  0  0  0  0  0  0
    1.4840    8.4590  -10.6490 N   0  0  0  0  0  0  0  0  0  0  0  0
    2.6710    7.9880  -10.7420 C   0  0  0  0  0  0  0  0  0  0  0  0
    3.2780    7.1030   -9.6870 C   0  0  0  0  0  0  0  0  0  0  0  0
    3.6620    8.1280  -11.7210 N   0  0  0  0  0  0  0  0  0  0  0  0
    4.9080    7.6970  -11.2520 N   0  0  0  0  0  0  0  0  0  0  0  0
    4.7090    7.1440  -10.0990 C   0  0  0  0  0  0  0  0  0  0  0  0
    3.7450    9.1690  -12.6990 C   0  0  0  0  0  0  0  0  0  0  0  0
    5.7900    6.5930   -9.2460 C   0  0  0  0  0  0  0  0  0  0  0  0
    2.8520   10.2670  -12.6940 C   0  0  0  0  0  0  0  0  0  0  0  0
    4.7130    9.1710  -13.7150 C   0  0  0  0  0  0  0  0  0  0  0  0
    2.9270   11.2990  -13.6350 C   0  0  0  0  0  0  0  0  0  0  0  0
    4.7950   10.1990  -14.6620 C   0  0  0  0  0  0  0  0  0  0  0  0
    3.9050   11.2660  -14.6240 C   0  0  0  0  0  0  0  0  0  0  0  0
  1  2  2  0
  2  3  1  0
  2  4  1  0
  3  5  1  0
  3  6  1  0
  4  7  2  0
  5  8  1  0
  7  9  1  0
  6 10  2  0
  7 10  1  0
  8 11  1  0
  8 12  2  0
  9 13  1  0
 13 14  1  0
 14 15  1  0
 15 16  1  0
 16 17  2  3
 17 18  1  0
 17 19  1  0
 19 20  1  0
 18 21  1  0
 20 21  2  0
 19 22  1  0
 21 23  1  0
 22 24  2  0
 22 25  1  0
 24 26  1  0
 25 27  2  0
 26 28  2  0
 27 28  1  0
M  END
>  <comRMSD>  (489) 
0.267506

>  <∆∆G>  (489) 
-5.618796

>  <N_constrained_atoms>  (489) 
25.0

>  <LE>  (489) 
-0.200671

>  <ref_pdb>  (489) 
x0104_0

>  <ref_mols>  (489) 
x0864_0_A_α,x0676_0_B_α

>  <%Rank>  (489) 
8.37337

>  <generation_date>  (489) 
nan

>  <method>  (489) 
nan

>  <submitter_email>  (489) 
nan

>  <original SMILES>  (489) 
CC1=NN(c2ccccc2)C(=NCCCOc2ccn(CC(=O)O)c(=O)c2)C1

>  <ref_url>  (489) 
nan

>  <submitter_name>  (489) 
nan

>  <submitter_institution>  (489) 
nan

$$$$
x0438_0_A_α-x0465_0_A_α
     RDKit          3D

 30 32  0  0  0  0  0  0  0  0999 V2000
   -8.0990   15.4970    3.8040 C   0  0  0  0  0  0  0  0  0  0  0  0
   -9.3310   15.3100    2.5260 S   0  0  0  0  0  0  0  0  0  0  0  0
  -10.5380   14.7850    3.1450 O   0  0  0  0  0  0  0  0  0  0  0  0
   -8.7190   14.0600    1.4040 C   0  0  0  0  0  0  0  0  0  0  0  0
   -9.4260   16.5420    1.7750 O   0  0  0  0  0  0  0  0  0  0  0  0
   -7.3520   14.3410    0.8780 C   0  0  0  0  0  0  0  0  0  0  0  0
   -7.1050   14.7970   -0.3980 N   0  0  0  0  0  0  0  0  0  0  0  0
   -6.2240   14.1840    1.5320 N   0  0  0  0  0  0  0  0  0  0  0  0
   -5.2110   14.5280    0.6660 C   0  0  0  0  0  0  0  0  0  0  0  0
   -5.7420   14.9200   -0.5540 C   0  0  0  0  0  0  0  0  0  0  0  0
   -4.9550   15.3220   -1.6240 C   0  0  0  0  0  0  0  0  0  0  0  0
   -3.8090   14.5280    0.8510 C   0  0  0  0  0  0  0  0  0  0  0  0
   -3.5640   15.3110   -1.4300 C   0  0  0  0  0  0  0  0  0  0  0  0
   -2.9710   14.9180   -0.2100 C   0  0  0  0  0  0  0  0  0  0  0  0
   -1.4470   14.9180   -0.0490 C   0  0  0  0  0  0  0  0  0  0  0  0
   -0.7260   13.5990   -0.0810 C   0  0  0  0  0  0  0  0  0  0  0  0
    0.3000   13.5110   -1.2180 C   0  0  0  0  0  0  0  0  0  0  0  0
    0.3540   12.1210   -1.5880 N   0  0  0  0  0  0  0  0  0  0  0  0
    0.5020   11.6290   -2.7710 C   0  0  0  0  0  0  0  0  0  0  0  0
    0.6660   12.4000   -4.1240 C   0  0  1  0  0  0  0  0  0  0  0  0
    0.4910   10.2780   -2.8270 O   0  0  0  0  0  0  0  0  0  0  0  0
    2.0370   13.0860   -4.1630 C   0  0  0  0  0  0  0  0  0  0  0  0
    0.5870   11.5190   -5.2550 O   0  0  0  0  0  0  0  0  0  0  0  0
   -0.5320   10.7940   -5.5750 C   0  0  0  0  0  0  0  0  0  0  0  0
   -0.6480    9.7870   -6.5430 C   0  0  0  0  0  0  0  0  0  0  0  0
   -1.6700   11.1230   -4.8280 C   0  0  0  0  0  0  0  0  0  0  0  0
    0.3860    9.4080   -7.3090 F   0  0  0  0  0  0  0  0  0  0  0  0
   -1.8550    9.1260   -6.7570 C   0  0  0  0  0  0  0  0  0  0  0  0
   -2.8840   10.4630   -5.0420 C   0  0  0  0  0  0  0  0  0  0  0  0
   -2.9780    9.4630   -6.0050 C   0  0  0  0  0  0  0  0  0  0  0  0
  2  1  1  0
  2  3  2  0
  2  4  1  0
  2  5  2  0
  4  6  1  0
  6  7  1  0
  6  8  2  0
  8  9  1  0
  7 10  1  0
  9 10  2  0
 10 11  1  0
  9 12  1  0
 11 13  2  0
 12 14  2  0
 13 14  1  0
 14 15  1  0
 15 16  1  0
 16 17  1  0
 17 18  1  0
 18 19  2  3
 19 20  1  0
 19 21  1  0
 20 22  1  1
 20 23  1  0
 23 24  1  0
 24 25  2  0
 24 26  1  0
 25 27  1  0
 25 28  1  0
 26 29  2  0
 28 30  2  0
 29 30  1  0
M  END
>  <comRMSD>  (490) 
0.368622

>  <∆∆G>  (490) 
-8.998354

>  <N_constrained_atoms>  (490) 
27.0

>  <LE>  (490) 
-0.299945

>  <ref_pdb>  (490) 
x0104_0

>  <ref_mols>  (490) 
x0438_0_A_α,x0465_0_A_α

>  <%Rank>  (490) 
8.390528

>  <generation_date>  (490) 
nan

>  <method>  (490) 
nan

>  <submitter_email>  (490) 
nan

>  <original SMILES>  (490) 
C[C@@H](Oc1ccccc1F)C(O)=NCCCc1ccc2[nH]c(CS(C)(=O)=O)nc2c1

>  <ref_url>  (490) 
nan

>  <submitter_name>  (490) 
nan

>  <submitter_institution>  (490) 
nan

$$$$
5cb5_I_0_I_γ-x0592_0_A_α
     RDKit          3D

 20 21  0  0  0  0  0  0  0  0999 V2000
   -0.8840   12.6140   -3.7590 O   0  0  0  0  0  0  0  0  0  0  0  0
   -0.8370   13.9810   -4.1860 C   0  0  1  0  0  0  0  0  0  0  0  0
   -1.0280   14.9730   -3.0320 C   0  0  1  0  0  0  0  0  0  0  0  0
    0.5540   14.3180   -4.7020 C   0  0  1  0  0  0  0  0  0  0  0  0
    0.6670   14.0260   -6.0750 O   0  0  0  0  0  0  0  0  0  0  0  0
   -1.2570   14.3480   -1.6350 C   0  0  0  0  0  0  0  0  0  0  0  0
    0.1490   15.8270   -2.9880 O   0  0  0  0  0  0  0  0  0  0  0  0
    0.7670   15.7740   -4.2730 C   0  0  2  0  0  0  0  0  0  0  0  0
    0.1980   16.8880   -5.1500 C   0  0  0  0  0  0  0  0  0  0  0  0
   -2.6950   14.4620   -1.4050 N   0  0  0  0  0  0  0  0  0  0  0  0
   -3.3320   14.7160   -0.3160 C   0  0  0  0  0  0  0  0  0  0  0  0
   -2.7220   14.9250    0.8920 N   0  0  0  0  0  0  0  0  0  0  0  0
   -4.7730   14.7940   -0.2970 C   0  0  0  0  0  0  0  0  0  0  0  0
   -5.6320   15.2170   -1.3400 C   0  0  0  0  0  0  0  0  0  0  0  0
   -5.6420   14.4700    0.7260 C   0  0  0  0  0  0  0  0  0  0  0  0
   -6.9210   15.1630   -1.0110 N   0  0  0  0  0  0  0  0  0  0  0  0
   -6.9020   14.7060    0.2490 N   0  0  0  0  0  0  0  0  0  0  0  0
   -8.1480   14.5100    0.9650 C   0  0  0  0  0  0  0  0  0  0  0  0
   -7.9030   14.0780    2.4010 C   0  0  0  0  0  0  0  0  0  0  0  0
   -7.1310   15.0430    3.1110 O   0  0  0  0  0  0  0  0  0  0  0  0
  2  1  1  1
  2  3  1  0
  2  4  1  0
  4  5  1  6
  3  6  1  1
  3  7  1  0
  4  8  1  0
  7  8  1  0
  8  9  1  6
  6 10  1  0
 10 11  2  3
 11 12  1  0
 11 13  1  0
 13 14  1  0
 13 15  2  0
 14 16  2  0
 15 17  1  0
 16 17  1  0
 17 18  1  0
 18 19  1  0
 19 20  1  0
M  END
>  <comRMSD>  (491) 
0.400353

>  <∆∆G>  (491) 
-6.656878

>  <N_constrained_atoms>  (491) 
19.0

>  <LE>  (491) 
-0.332844

>  <ref_pdb>  (491) 
x0104_0

>  <ref_mols>  (491) 
x0592_0_A_α

>  <%Rank>  (491) 
8.407687

>  <generation_date>  (491) 
nan

>  <method>  (491) 
nan

>  <submitter_email>  (491) 
nan

>  <original SMILES>  (491) 
CC1OC(CN=C(N)c2cnn(CCO)c2)C(O)C1O

>  <ref_url>  (491) 
nan

>  <submitter_name>  (491) 
nan

>  <submitter_institution>  (491) 
nan

$$$$
x0104_0_A_β-x0766_0_A_α
     RDKit          3D

 21 23  0  0  0  0  0  0  0  0999 V2000
   -7.0590   14.6460    2.8230 N   0  0  0  0  0  0  0  0  0  0  0  0
   -6.4910   14.7900    1.5670 C   0  0  0  0  0  0  0  0  0  0  0  0
   -7.2230   14.6160    0.3920 C   0  0  0  0  0  0  0  0  0  0  0  0
   -5.1500   15.1280    1.4370 C   0  0  0  0  0  0  0  0  0  0  0  0
   -4.5200   15.2890    0.2780 N   0  0  0  0  0  0  0  0  0  0  0  0
   -6.5880   14.7790   -0.8390 C   0  0  0  0  0  0  0  0  0  0  0  0
   -5.2460   15.1090   -0.8240 C   0  0  0  0  0  0  0  0  0  0  0  0
   -4.5910   15.2440   -1.9960 O   0  0  0  0  0  0  0  0  0  0  0  0
   -3.5890   14.2640   -1.8700 C   0  0  1  0  0  0  0  0  0  0  0  0
   -2.5990   14.3370   -2.9830 C   0  0  0  0  0  0  0  0  0  0  0  0
   -2.7010   14.4760   -0.6640 C   0  0  0  0  0  0  0  0  0  0  0  0
   -1.3690   14.4950   -2.4780 C   0  0  0  0  0  0  0  0  0  0  0  0
   -1.4380   14.5950   -1.0440 C   0  0  0  0  0  0  0  0  0  0  0  0
   -0.0670   14.5530   -3.1550 C   0  0  1  0  0  0  0  0  0  0  0  0
    0.3250   13.2950   -3.9220 C   0  0  2  0  0  0  0  0  0  0  0  0
    0.2280   15.7020   -4.0900 C   0  0  0  0  0  0  0  0  0  0  0  0
    0.7080   12.2250   -2.9270 C   0  0  0  0  0  0  0  0  0  0  0  0
    1.5230   13.7320   -4.7740 C   0  0  0  0  0  0  0  0  0  0  0  0
    1.5440   15.2660   -4.6890 C   0  0  0  0  0  0  0  0  0  0  0  0
    1.5610   12.3170   -2.0770 O   0  0  0  0  0  0  0  0  0  0  0  0
   -0.0250   11.0980   -3.0290 O   0  0  0  0  0  0  0  0  0  0  0  0
  1  2  1  0
  2  3  2  0
  2  4  1  0
  4  5  2  0
  3  6  1  0
  5  7  1  0
  6  7  2  0
  7  8  1  0
  9  8  1  6
  9 10  1  0
  9 11  1  0
 10 12  2  0
 11 13  2  0
 12 13  1  0
 14 12  1  6
 14 15  1  0
 14 16  1  0
 15 17  1  1
 15 18  1  0
 16 19  1  0
 18 19  1  0
 17 20  2  0
 17 21  1  0
M  END
>  <comRMSD>  (492) 
0.535881

>  <∆∆G>  (492) 
-5.578216

>  <N_constrained_atoms>  (492) 
21.0

>  <LE>  (492) 
-0.265629

>  <ref_pdb>  (492) 
x0104_0

>  <ref_mols>  (492) 
x0104_0_A_β,x0766_0_A_α

>  <%Rank>  (492) 
8.424846

>  <generation_date>  (492) 
nan

>  <method>  (492) 
nan

>  <submitter_email>  (492) 
nan

>  <original SMILES>  (492) 
Nc1ccc(OC2C=CC(C3CCCC3C(=O)O)=C2)nc1

>  <ref_url>  (492) 
nan

>  <submitter_name>  (492) 
nan

>  <submitter_institution>  (492) 
nan

$$$$
2bfq_0_A_β-2FAV_0_B_γ
     RDKit          3D

 18 18  0  0  0  0  0  0  0  0999 V2000
   -1.2660   20.9970   -8.6520 O   0  0  0  0  0  0  0  0  0  0  0  0
   -0.2660   20.0660   -7.8460 P   0  0  0  0  0  0  0  0  0  0  0  0
   -1.0060   19.8530   -6.4820 O   0  0  0  0  0  0  0  0  0  0  0  0
    0.0370   18.8290   -8.6430 O   0  0  0  0  0  0  0  0  0  0  0  0
    1.0030   21.0160   -7.5980 O   0  0  0  0  0  0  0  0  0  0  0  0
   -1.6150   18.5080   -5.9580 P   0  0  1  0  0  0  0  0  0  0  0  0
   -0.4810   17.4470   -6.2030 O   0  0  0  0  0  0  0  0  0  0  0  0
   -2.1180   18.5450   -4.5810 O   0  0  0  0  0  0  0  0  0  0  0  0
   -2.7030   18.0850   -7.0460 O   0  0  0  0  0  0  0  0  0  0  0  0
    0.7390   17.7850   -5.6050 C   0  0  0  0  0  0  0  0  0  0  0  0
    1.2410   16.6300   -4.7750 C   0  0  0  0  0  0  0  0  0  0  0  0
    0.2370   15.5880   -4.4240 C   0  0  2  0  0  0  0  0  0  0  0  0
    0.1940   15.3230   -3.0050 O   0  0  0  0  0  0  0  0  0  0  0  0
    0.5570   14.2390   -5.0580 C   0  0  1  0  0  0  0  0  0  0  0  0
    1.8600   13.7470   -4.7370 O   0  0  0  0  0  0  0  0  0  0  0  0
   -0.3010   13.9700   -2.9030 C   0  0  0  0  0  0  0  0  0  0  0  0
   -0.4970   13.4520   -4.3310 C   0  0  2  0  0  0  0  0  0  0  0  0
   -0.2310   12.0560   -4.4080 O   0  0  0  0  0  0  0  0  0  0  0  0
  1  2  1  0
  2  3  1  0
  2  4  2  0
  2  5  1  0
  3  6  1  0
  6  7  1  0
  6  8  2  0
  6  9  1  6
  7 10  1  0
 10 11  1  0
 12 11  1  1
 12 13  1  0
 12 14  1  0
 14 15  1  1
 13 16  1  0
 14 17  1  0
 16 17  1  0
 17 18  1  1
M  END
>  <comRMSD>  (493) 
0.523443

>  <∆∆G>  (493) 
-12.463568

>  <N_constrained_atoms>  (493) 
17.0

>  <LE>  (493) 
-0.69242

>  <ref_pdb>  (493) 
x0104_0

>  <ref_mols>  (493) 


>  <%Rank>  (493) 
8.442004

>  <generation_date>  (493) 
nan

>  <method>  (493) 
nan

>  <submitter_email>  (493) 
nan

>  <original SMILES>  (493) 
O=P(O)(O)OP(=O)(O)OCCC1OCC(O)C1O

>  <ref_url>  (493) 
nan

>  <submitter_name>  (493) 
nan

>  <submitter_institution>  (493) 
nan

$$$$
x0104_0_A_β-x0805_0_A_β
     RDKit          3D

 20 21  0  0  0  0  0  0  0  0999 V2000
   -6.8000   14.6890    2.5600 N   0  0  0  0  0  0  0  0  0  0  0  0
   -6.2770   14.7640    1.2730 C   0  0  0  0  0  0  0  0  0  0  0  0
   -7.1170   14.7370    0.1680 C   0  0  0  0  0  0  0  0  0  0  0  0
   -4.9060   14.8740    1.0260 C   0  0  0  0  0  0  0  0  0  0  0  0
   -4.3380   14.9560   -0.2080 N   0  0  0  0  0  0  0  0  0  0  0  0
   -6.5790   14.8240   -1.1100 C   0  0  0  0  0  0  0  0  0  0  0  0
   -5.2060   14.9320   -1.2470 C   0  0  0  0  0  0  0  0  0  0  0  0
   -4.7380   15.0150   -2.5410 O   0  0  0  0  0  0  0  0  0  0  0  0
   -3.3260   14.8600   -2.6820 C   0  0  0  0  0  0  0  0  0  0  0  0
   -2.9180   15.3410   -4.0770 C   0  0  0  0  0  0  0  0  0  0  0  0
   -1.6330   14.7120   -4.6700 C   0  0  0  0  0  0  0  0  0  0  0  0
   -0.5860   14.2610   -3.6190 C   0  0  1  0  0  0  0  0  0  0  0  0
    0.1380   12.9180   -3.9750 C   0  0  2  0  0  0  0  0  0  0  0  0
    0.4100   15.4090   -3.3550 C   0  0  0  0  0  0  0  0  0  0  0  0
    0.3260   12.0990   -2.6990 C   0  0  0  0  0  0  0  0  0  0  0  0
    1.4770   13.0760   -4.7190 C   0  0  0  0  0  0  0  0  0  0  0  0
    1.7360   15.2930   -4.0890 C   0  0  0  0  0  0  0  0  0  0  0  0
    0.3350   10.7650   -2.8880 O   0  0  0  0  0  0  0  0  0  0  0  0
    0.4500   12.5820   -1.5690 O   0  0  0  0  0  0  0  0  0  0  0  0
    2.3080   13.9960   -4.0400 O   0  0  0  0  0  0  0  0  0  0  0  0
  1  2  1  0
  2  3  2  0
  2  4  1  0
  4  5  2  0
  3  6  1  0
  5  7  1  0
  6  7  2  0
  7  8  1  0
  8  9  1  0
  9 10  1  0
 10 11  1  0
 12 11  1  6
 12 13  1  0
 12 14  1  0
 13 15  1  1
 13 16  1  0
 14 17  1  0
 15 18  1  0
 15 19  2  0
 16 20  1  0
 17 20  1  0
M  END
>  <comRMSD>  (494) 
0.283543

>  <∆∆G>  (494) 
-8.616561

>  <N_constrained_atoms>  (494) 
18.0

>  <LE>  (494) 
-0.430828

>  <ref_pdb>  (494) 
x0104_0

>  <ref_mols>  (494) 
x0104_0_A_β,x0805_0_A_β

>  <%Rank>  (494) 
8.459163

>  <generation_date>  (494) 
nan

>  <method>  (494) 
nan

>  <submitter_email>  (494) 
nan

>  <original SMILES>  (494) 
Nc1ccc(OCCCC2CCOCC2C(=O)O)nc1

>  <ref_url>  (494) 
nan

>  <submitter_name>  (494) 
nan

>  <submitter_institution>  (494) 
nan

$$$$
x0438_0_A_α-x0471_0_A_α
     RDKit          3D

 18 19  0  0  0  0  0  0  0  0999 V2000
   -8.4670   15.5980    3.9800 C   0  0  0  0  0  0  0  0  0  0  0  0
   -9.5000   15.4200    2.5230 S   0  0  0  0  0  0  0  0  0  0  0  0
  -10.8190   14.9940    2.9700 O   0  0  0  0  0  0  0  0  0  0  0  0
   -9.1310   15.0830    5.2770 C   0  0  0  0  0  0  0  0  0  0  0  0
   -8.7590   13.9950    1.6360 C   0  0  2  0  0  0  0  0  0  0  0  0
   -9.4060   16.5890    1.6850 O   0  0  0  0  0  0  0  0  0  0  0  0
   -9.7030   13.6630    5.1950 C   0  0  0  0  0  0  0  0  0  0  0  0
   -8.1190   15.1580    6.4170 C   0  0  0  0  0  0  0  0  0  0  0  0
   -8.5870   12.8000    2.4880 N   0  0  0  0  0  0  0  0  0  0  0  0
   -7.4280   14.3410    1.0070 C   0  0  0  0  0  0  0  0  0  0  0  0
   -7.2570   14.7300   -0.3100 N   0  0  0  0  0  0  0  0  0  0  0  0
   -6.2680   14.3020    1.6210 N   0  0  0  0  0  0  0  0  0  0  0  0
   -5.3200   14.6620    0.7010 C   0  0  0  0  0  0  0  0  0  0  0  0
   -5.9120   14.9380   -0.5210 C   0  0  0  0  0  0  0  0  0  0  0  0
   -5.1850   15.3290   -1.6460 C   0  0  0  0  0  0  0  0  0  0  0  0
   -3.9300   14.7690    0.8460 C   0  0  0  0  0  0  0  0  0  0  0  0
   -3.8000   15.4280   -1.4860 C   0  0  0  0  0  0  0  0  0  0  0  0
   -3.1810   15.1520   -0.2660 C   0  0  0  0  0  0  0  0  0  0  0  0
  2  1  1  0
  2  3  2  0
  1  4  1  0
  2  5  1  0
  2  6  2  0
  4  7  1  0
  4  8  1  0
  5  9  1  1
  5 10  1  0
 10 11  1  0
 10 12  2  0
 12 13  1  0
 11 14  1  0
 13 14  2  0
 14 15  1  0
 13 16  1  0
 15 17  2  0
 16 18  2  0
 17 18  1  0
M  END
>  <comRMSD>  (495) 
0.462724

>  <∆∆G>  (495) 
-4.198814

>  <N_constrained_atoms>  (495) 
18.0

>  <LE>  (495) 
-0.233267

>  <ref_pdb>  (495) 
x0104_0

>  <ref_mols>  (495) 
x0438_0_A_α,x0471_0_A_α

>  <%Rank>  (495) 
8.476321

>  <generation_date>  (495) 
nan

>  <method>  (495) 
nan

>  <submitter_email>  (495) 
nan

>  <original SMILES>  (495) 
CC(C)CS(=O)(=O)C(N)c1nc2ccccc2[nH]1

>  <ref_url>  (495) 
nan

>  <submitter_name>  (495) 
nan

>  <submitter_institution>  (495) 
nan

$$$$
x0282_0_A_α-x0128_0_A_α
     RDKit          3D

 24 26  0  0  0  0  0  0  0  0999 V2000
   -7.8880   14.4150    0.5090 C   0  0  0  0  0  0  0  0  0  0  0  0
   -8.5360   14.0180   -0.6870 O   0  0  0  0  0  0  0  0  0  0  0  0
   -6.3760   14.1850    0.4530 C   0  0  2  0  0  0  0  0  0  0  0  0
   -5.6710   14.1560    1.8240 C   0  0  2  0  0  0  0  0  0  0  0  0
   -5.6620   15.1610   -0.5020 C   0  0  0  0  0  0  0  0  0  0  0  0
   -6.2050   15.0890    2.8180 N   0  0  0  0  0  0  0  0  0  0  0  0
   -4.1290   14.3230    1.7130 C   0  0  0  0  0  0  0  0  0  0  0  0
   -4.2910   14.6240   -0.8430 C   0  0  0  0  0  0  0  0  0  0  0  0
   -7.5490   15.1990    3.2110 C   0  0  0  0  0  0  0  0  0  0  0  0
   -3.5530   14.2780    0.3680 N   0  0  0  0  0  0  0  0  0  0  0  0
   -8.4980   15.2850    2.4430 O   0  0  0  0  0  0  0  0  0  0  0  0
   -7.6380   15.2250    4.5750 N   0  0  0  0  0  0  0  0  0  0  0  0
   -2.1980   14.4290    0.2770 C   0  0  0  0  0  0  0  0  0  0  0  0
   -1.6980   14.5120   -0.9650 N   0  0  0  0  0  0  0  0  0  0  0  0
   -1.4370   14.4870    1.3940 N   0  0  0  0  0  0  0  0  0  0  0  0
   -8.4640   16.0670    5.3580 C   0  0  0  0  0  0  0  0  0  0  0  0
   -0.3860   14.6660   -1.1020 C   0  0  0  0  0  0  0  0  0  0  0  0
   -0.1220   14.6400    1.1930 C   0  0  0  0  0  0  0  0  0  0  0  0
   -9.1210   17.2070    4.8990 C   0  0  0  0  0  0  0  0  0  0  0  0
   -8.6410   15.7350    6.7010 C   0  0  0  0  0  0  0  0  0  0  0  0
    0.4600   14.7410   -0.0520 C   0  0  0  0  0  0  0  0  0  0  0  0
   -9.9120   17.9980    5.6700 N   0  0  0  0  0  0  0  0  0  0  0  0
   -9.4480   16.5320    7.5180 C   0  0  0  0  0  0  0  0  0  0  0  0
  -10.0550   17.6430    6.9590 C   0  0  0  0  0  0  0  0  0  0  0  0
  1  2  1  0
  3  1  1  1
  3  4  1  0
  3  5  1  0
  4  6  1  1
  4  7  1  0
  5  8  1  0
  6  9  1  0
  7 10  1  0
  8 10  1  0
  9 11  2  0
  9 12  1  0
 10 13  1  0
 13 14  2  0
 13 15  1  0
 12 16  1  0
 14 17  1  0
 15 18  2  0
 16 19  2  0
 16 20  1  0
 17 21  2  0
 18 21  1  0
 19 22  1  0
 20 23  2  0
 22 24  2  0
 23 24  1  0
M  END
>  <comRMSD>  (496) 
0.623393

>  <∆∆G>  (496) 
-8.138624

>  <N_constrained_atoms>  (496) 
24.0

>  <LE>  (496) 
-0.339109

>  <ref_pdb>  (496) 
x0104_0

>  <ref_mols>  (496) 
x0282_0_A_α,x0128_0_A_α

>  <%Rank>  (496) 
8.49348

>  <generation_date>  (496) 
nan

>  <method>  (496) 
nan

>  <submitter_email>  (496) 
nan

>  <original SMILES>  (496) 
O=C(Nc1cccnc1)NC1CN(c2ncccn2)CCC1CO

>  <ref_url>  (496) 
nan

>  <submitter_name>  (496) 
nan

>  <submitter_institution>  (496) 
nan

$$$$
x0628_0_A_α-x0805_0_A_α
     RDKit          3D

 19 20  0  0  0  0  0  0  0  0999 V2000
   -1.3710    9.1390   -6.9400 C   0  0  0  0  0  0  0  0  0  0  0  0
   -1.2160   10.3780   -6.1410 C   0  0  0  0  0  0  0  0  0  0  0  0
   -2.1410   10.8060   -5.2120 N   0  0  0  0  0  0  0  0  0  0  0  0
   -0.1530   11.1660   -6.2760 N   0  0  0  0  0  0  0  0  0  0  0  0
   -0.4200   12.1440   -5.3770 N   0  0  0  0  0  0  0  0  0  0  0  0
   -1.6340   11.9400   -4.7170 C   0  0  0  0  0  0  0  0  0  0  0  0
    0.5420   13.2230   -5.2240 C   0  0  0  0  0  0  0  0  0  0  0  0
   -2.2170   12.8370   -3.6580 C   0  0  0  0  0  0  0  0  0  0  0  0
    1.6710   12.9620   -4.2250 C   0  0  0  0  0  0  0  0  0  0  0  0
   -1.3550   13.7710   -3.0700 C   0  0  0  0  0  0  0  0  0  0  0  0
   -3.5570   12.8300   -3.1930 C   0  0  0  0  0  0  0  0  0  0  0  0
    1.1910   12.2720   -2.9690 C   0  0  0  0  0  0  0  0  0  0  0  0
   -3.9810   13.7400   -2.1830 C   0  0  0  0  0  0  0  0  0  0  0  0
   -1.7740   14.6590   -2.0780 C   0  0  0  0  0  0  0  0  0  0  0  0
    0.7170   11.1460   -2.9430 O   0  0  0  0  0  0  0  0  0  0  0  0
    1.3330   13.0070   -1.8520 O   0  0  0  0  0  0  0  0  0  0  0  0
   -3.0860   14.6640   -1.6220 C   0  0  0  0  0  0  0  0  0  0  0  0
   -3.5740   15.5210   -0.6580 O   0  0  0  0  0  0  0  0  0  0  0  0
   -4.1710   15.0020    0.5260 C   0  0  0  0  0  0  0  0  0  0  0  0
  1  2  1  0
  2  3  1  0
  2  4  2  0
  4  5  1  0
  3  6  2  0
  5  6  1  0
  5  7  1  0
  6  8  1  0
  7  9  1  0
  8 10  2  0
  8 11  1  0
  9 12  1  0
 11 13  2  0
 10 14  1  0
 12 15  2  0
 12 16  1  0
 13 17  1  0
 14 17  2  0
 17 18  1  0
 18 19  1  0
M  END
>  <comRMSD>  (497) 
0.423353

>  <∆∆G>  (497) 
-2.162371

>  <N_constrained_atoms>  (497) 
19.0

>  <LE>  (497) 
-0.113809

>  <ref_pdb>  (497) 
x0104_0

>  <ref_mols>  (497) 
x0628_0_A_α,x0805_0_A_α

>  <%Rank>  (497) 
8.510638

>  <generation_date>  (497) 
nan

>  <method>  (497) 
nan

>  <submitter_email>  (497) 
nan

>  <original SMILES>  (497) 
COc1ccc(-c2nc(C)nn2CCC(=O)O)cc1

>  <ref_url>  (497) 
nan

>  <submitter_name>  (497) 
nan

>  <submitter_institution>  (497) 
nan

$$$$
3Q6Z_0_A_γ-6fx_7_0A_β
     RDKit          3D

 18 18  0  0  0  0  0  0  0  0999 V2000
   -1.0900   12.5690   -4.4080 O   0  0  0  0  0  0  0  0  0  0  0  0
   -0.9020   13.9950   -4.3710 C   0  0  1  0  0  0  0  0  0  0  0  0
   -1.1570   14.5090   -2.9590 C   0  0  0  0  0  0  0  0  0  0  0  0
    0.5680   14.3340   -4.6090 C   0  0  2  0  0  0  0  0  0  0  0  0
    1.4010   13.2490   -4.2150 O   0  0  0  0  0  0  0  0  0  0  0  0
   -0.0090   15.2910   -2.5560 O   0  0  0  0  0  0  0  0  0  0  0  0
    0.7410   15.5890   -3.7480 C   0  0  2  0  0  0  0  0  0  0  0  0
    0.2950   16.9500   -4.2730 C   0  0  0  0  0  0  0  0  0  0  0  0
    0.7870   17.3550   -5.6440 C   0  0  0  0  0  0  0  0  0  0  0  0
   -0.3690   17.4670   -6.4490 O   0  0  0  0  0  0  0  0  0  0  0  0
   -1.5480   18.4510   -6.0460 P   0  0  2  0  0  0  0  0  0  0  0  0
   -1.1090   19.8570   -6.6000 O   0  0  0  0  0  0  0  0  0  0  0  0
   -2.0180   18.4050   -4.6530 O   0  0  0  0  0  0  0  0  0  0  0  0
   -2.7140   18.0060   -7.0320 O   0  0  0  0  0  0  0  0  0  0  0  0
   -0.4180   20.0080   -8.0000 P   0  0  0  0  0  0  0  0  0  0  0  0
   -1.4990   20.8960   -8.7550 O   0  0  0  0  0  0  0  0  0  0  0  0
   -0.0610   18.7680   -8.7530 O   0  0  0  0  0  0  0  0  0  0  0  0
    0.7600   21.0700   -7.8160 O   0  0  0  0  0  0  0  0  0  0  0  0
  2  1  1  1
  2  3  1  0
  2  4  1  0
  4  5  1  1
  3  6  1  0
  4  7  1  0
  6  7  1  0
  7  8  1  6
  8  9  1  0
  9 10  1  0
 10 11  1  0
 11 12  1  0
 11 13  2  0
 11 14  1  6
 12 15  1  0
 15 16  1  0
 15 17  2  0
 15 18  1  0
M  END
>  <comRMSD>  (498) 
0.533819

>  <∆∆G>  (498) 
-12.810748

>  <N_constrained_atoms>  (498) 
17.0

>  <LE>  (498) 
-0.711708

>  <ref_pdb>  (498) 
x0104_0

>  <ref_mols>  (498) 


>  <%Rank>  (498) 
8.527797

>  <generation_date>  (498) 
nan

>  <method>  (498) 
nan

>  <submitter_email>  (498) 
nan

>  <original SMILES>  (498) 
O=P(O)(O)OP(=O)(O)OCCC1OCC(O)C1O

>  <ref_url>  (498) 
nan

>  <submitter_name>  (498) 
nan

>  <submitter_institution>  (498) 
nan

$$$$
5CB5_0_C_γ-x0471_0_A_α
     RDKit          3D

 26 28  0  0  0  0  0  0  0  0999 V2000
   -0.5600   12.6030   -3.7810 O   0  0  0  0  0  0  0  0  0  0  0  0
   -0.8160   13.9950   -3.9730 C   0  0  1  0  0  0  0  0  0  0  0  0
   -0.2600   14.8790   -2.8570 C   0  0  2  0  0  0  0  0  0  0  0  0
   -0.0050   14.5200   -5.1370 C   0  0  2  0  0  0  0  0  0  0  0  0
    1.3250   14.0310   -5.0650 O   0  0  0  0  0  0  0  0  0  0  0  0
   -1.2150   15.2340   -1.7450 C   0  0  0  0  0  0  0  0  0  0  0  0
    0.0870   16.1450   -3.4590 O   0  0  0  0  0  0  0  0  0  0  0  0
   -0.1660   16.0160   -4.8560 C   0  0  1  0  0  0  0  0  0  0  0  0
    0.7520   16.9640   -5.6020 C   0  0  0  0  0  0  0  0  0  0  0  0
   -2.6150   15.5740   -2.2430 C   0  0  0  0  0  0  0  0  0  0  0  0
   -3.6520   15.3530   -1.2040 C   0  0  0  0  0  0  0  0  0  0  0  0
   -4.9970   15.1270   -1.5430 C   0  0  0  0  0  0  0  0  0  0  0  0
   -3.2210   15.3680    0.1320 C   0  0  0  0  0  0  0  0  0  0  0  0
   -5.8660   14.9090   -0.4760 C   0  0  0  0  0  0  0  0  0  0  0  0
   -4.1080   15.1520    1.1750 C   0  0  0  0  0  0  0  0  0  0  0  0
   -7.2130   14.6560   -0.4140 N   0  0  0  0  0  0  0  0  0  0  0  0
   -5.4510   14.9140    0.8570 C   0  0  0  0  0  0  0  0  0  0  0  0
   -7.5600   14.5170    0.9180 C   0  0  0  0  0  0  0  0  0  0  0  0
   -6.5060   14.6710    1.6930 N   0  0  0  0  0  0  0  0  0  0  0  0
   -8.9340   14.2350    1.4120 C   0  0  0  0  0  0  0  0  0  0  0  0
   -8.9280   14.0630    2.8690 N   0  0  0  0  0  0  0  0  0  0  0  0
   -9.2090   15.1430    3.6920 C   0  0  0  0  0  0  0  0  0  0  0  0
   -9.4130   16.2660    3.2340 O   0  0  0  0  0  0  0  0  0  0  0  0
   -9.2810   14.8410    5.1960 C   0  0  0  0  0  0  0  0  0  0  0  0
   -9.6230   13.3790    5.4540 C   0  0  0  0  0  0  0  0  0  0  0  0
   -7.9950   15.2520    5.9050 C   0  0  0  0  0  0  0  0  0  0  0  0
  2  1  1  1
  2  3  1  0
  2  4  1  0
  4  5  1  1
  3  6  1  1
  3  7  1  0
  4  8  1  0
  7  8  1  0
  8  9  1  6
  6 10  1  0
 10 11  1  0
 11 12  2  0
 11 13  1  0
 12 14  1  0
 13 15  2  0
 14 16  1  0
 14 17  2  0
 15 17  1  0
 16 18  1  0
 17 19  1  0
 18 19  2  0
 18 20  1  0
 20 21  1  0
 21 22  1  0
 22 23  2  0
 22 24  1  0
 24 25  1  0
 24 26  1  0
M  END
>  <comRMSD>  (499) 
0.392837

>  <∆∆G>  (499) 
-7.612408

>  <N_constrained_atoms>  (499) 
24.0

>  <LE>  (499) 
-0.292785

>  <ref_pdb>  (499) 
x0104_0

>  <ref_mols>  (499) 
x0471_0_A_α

>  <%Rank>  (499) 
8.544955

>  <generation_date>  (499) 
nan

>  <method>  (499) 
nan

>  <submitter_email>  (499) 
nan

>  <original SMILES>  (499) 
CC(C)C(=O)NCc1nc2ccc(CCC3OC(C)C(O)C3O)cc2[nH]1

>  <ref_url>  (499) 
nan

>  <submitter_name>  (499) 
nan

>  <submitter_institution>  (499) 
nan

$$$$
x0253_0_A_α-x0950_1_A_α
     RDKit          3D

 15 15  0  0  0  0  0  0  0  0999 V2000
    0.2550   11.8600   -5.4480 N   0  0  0  0  0  0  0  0  0  0  0  0
    1.0720   11.6560   -6.5380 C   0  0  0  0  0  0  0  0  0  0  0  0
    2.1810   12.1520   -6.6080 O   0  0  0  0  0  0  0  0  0  0  0  0
    0.5010   12.9130   -4.4590 C   0  0  1  0  0  0  0  0  0  0  0  0
    0.7690   12.2670   -3.0990 C   0  0  0  0  0  0  0  0  0  0  0  0
    1.6420   13.8200   -4.8640 C   0  0  0  0  0  0  0  0  0  0  0  0
    0.5070   10.7670   -7.6000 C   0  0  0  0  0  0  0  0  0  0  0  0
    1.4090   12.7570   -2.1810 O   0  0  0  0  0  0  0  0  0  0  0  0
    0.2090   11.0510   -2.9640 O   0  0  0  0  0  0  0  0  0  0  0  0
   -0.4660    9.8440   -7.1940 C   0  0  0  0  0  0  0  0  0  0  0  0
    0.8820   10.7980   -8.9530 C   0  0  0  0  0  0  0  0  0  0  0  0
   -1.0560    8.9690   -8.1100 C   0  0  0  0  0  0  0  0  0  0  0  0
    0.2970    9.9270   -9.8710 C   0  0  0  0  0  0  0  0  0  0  0  0
   -2.1000    7.9900   -7.6530 C   0  0  0  0  0  0  0  0  0  0  0  0
   -0.6670    9.0190   -9.4520 C   0  0  0  0  0  0  0  0  0  0  0  0
  1  2  1  0
  2  3  2  0
  1  4  1  0
  4  5  1  0
  4  6  1  6
  2  7  1  0
  5  8  2  0
  5  9  1  0
  7 10  2  0
  7 11  1  0
 10 12  1  0
 11 13  2  0
 12 14  1  0
 12 15  2  0
 13 15  1  0
M  END
>  <comRMSD>  (500) 
0.370229

>  <∆∆G>  (500) 
-2.695883

>  <N_constrained_atoms>  (500) 
15.0

>  <LE>  (500) 
-0.179726

>  <ref_pdb>  (500) 
x0104_0

>  <ref_mols>  (500) 
x0253_0_A_α,x0950_1_A_α

>  <%Rank>  (500) 
8.562114

>  <generation_date>  (500) 
nan

>  <method>  (500) 
nan

>  <submitter_email>  (500) 
nan

>  <original SMILES>  (500) 
Cc1cccc(C(=O)NC(C)C(=O)O)c1

>  <ref_url>  (500) 
nan

>  <submitter_name>  (500) 
nan

>  <submitter_institution>  (500) 
nan

$$$$
