Fragmenstein_NSP3_quicktest2
     RDKit          2D

  3  2  0  0  0  0  0  0  0  0999 V2000
    2.5981   -0.0000    0.0000 F   0  0  0  0  0  0  0  0  0  0  0  0
    1.2990    0.7500    0.0000 O   0  0  0  0  0  0  0  0  0  0  0  0
    0.0000    0.0000    0.0000 O   0  0  0  0  0  0  0  0  0  0  0  0
  1  2  1  0
  2  3  1  0
M  END
>  <%Rank>  (1) 
Sorted by 2x RSMD (high is bad) + LE (high is bad) - 3x N_constrained_atoms/(20+N_constrained_atoms) + N_unconstrained_atoms/N_constrained_atoms

>  <N_hits>  (1) 
Number of hits used

>  <submitter_name>  (1) 
Matteo Ferla

>  <original SMILES>  (1) 
molecule smiles

>  <∆G_unbound>  (1) 
Gibbs Free energy of ligand unbound

>  <∆G_bound>  (1) 
Gibbs Free energy of ligand bound

>  <regarded>  (1) 
Fragments used for mapping

>  <ref_pdb>  (1) 
All ligands were evaluated against the apo crystal of 6WOJ

>  <smiles>  (1) 
molecule smiles used

>  <submitter_email>  (1) 
matteo@well.ox.ac.uk

>  <disregarded>  (1) 
Fragments rejected for mapping

>  <LE>  (1) 
Ligand efficiency (kcal/mol/N_heavy)

>  <submitter_institution>  (1) 
Universtity of Oxford

>  <ref_mols>  (1) 
all reference molecules

>  <N_constrained_atoms>  (1) 
Number of atoms in the submission that were constrained

>  <ref_url>  (1) 
https://github.com/matteoferla/Fragmenstein

>  <method>  (1) 
Fragmenstein Postera rescored (permissive mapping). Rank = 2x RSMD + 1 x LE - 3x Nc/(20+Nc) ranked + 1x Nu/Nc

>  <comRMSD>  (1) 
Combined RMSD from the atoms of the fragments that contributed to the position of the followup

>  <N_unconstrained_atoms>  (1) 
Number of heavy atoms in the submission that were NOT constrained

>  <∆∆G>  (1) 
Difference in Gibbs Free energy relative to unbound molecule in kcal/mol (ref2015 scorefxn; negative=Good)

>  <runtime>  (1) 
seconds it took

>  <generation_date>  (1) 
2020-09-22T12:52:33.697137

$$$$
mArh-6mea_B_0_B_β-mArh-x0628_0_A_α
     RDKit          3D

 23 23  0  0  0  0  0  0  0  0999 V2000
   -1.5520   20.4820   -8.2320 O   0  0  0  0  0  0  0  0  0  0  0  0
   -0.1890   19.8630   -7.6980 P   0  0  0  0  0  0  0  0  0  0  0  0
   -0.5440   19.2180   -6.3110 O   0  0  0  0  0  0  0  0  0  0  0  0
    0.9850   20.7910   -7.6040 O   0  0  0  0  0  0  0  0  0  0  0  0
    0.0050   18.5960   -8.6590 O   0  0  0  0  0  0  0  0  0  0  0  0
   -1.5130   18.0500   -5.8790 P   0  0  2  0  0  0  0  0  0  0  0  0
   -0.4140   16.8880   -5.5970 O   0  0  0  0  0  0  0  0  0  0  0  0
   -2.6370   17.6720   -6.7710 O   0  0  0  0  0  0  0  0  0  0  0  0
   -1.8980   18.5820   -4.4360 O   0  0  0  0  0  0  0  0  0  0  0  0
   -0.7180   15.5970   -5.0480 C   0  0  0  0  0  0  0  0  0  0  0  0
    0.5840   14.7840   -5.1110 C   0  0  0  0  0  0  0  0  0  0  0  0
    0.7730   13.2310   -4.9720 C   0  0  1  0  0  0  0  0  0  0  0  0
    1.5710   12.8680   -3.6960 C   0  0  0  0  0  0  0  0  0  0  0  0
   -0.1760   12.1820   -5.4120 N   0  0  0  0  0  0  0  0  0  0  0  0
    0.8730   12.0370   -2.6420 C   0  0  0  0  0  0  0  0  0  0  0  0
    0.2130   11.2910   -6.3720 N   0  0  0  0  0  0  0  0  0  0  0  0
   -1.4650   11.8880   -5.0080 C   0  0  0  0  0  0  0  0  0  0  0  0
    0.4320   10.9100   -2.7820 O   0  0  0  0  0  0  0  0  0  0  0  0
    0.7480   12.6410   -1.4330 O   0  0  0  0  0  0  0  0  0  0  0  0
   -2.2400   12.6220   -3.9810 C   0  0  0  0  0  0  0  0  0  0  0  0
   -1.9030   10.8380   -5.6790 N   0  0  0  0  0  0  0  0  0  0  0  0
   -0.8630   10.5010   -6.4890 C   0  0  0  0  0  0  0  0  0  0  0  0
   -0.9320    9.3490   -7.4150 C   0  0  0  0  0  0  0  0  0  0  0  0
  1  2  1  0
  2  3  1  0
  2  4  2  0
  2  5  1  0
  3  6  1  0
  6  7  1  0
  6  8  2  0
  6  9  1  1
  7 10  1  0
 10 11  1  0
 12 11  1  1
 12 13  1  0
 12 14  1  0
 13 15  1  0
 14 16  1  0
 14 17  1  0
 15 18  2  0
 15 19  1  0
 17 20  1  0
 17 21  2  0
 16 22  2  0
 21 22  1  0
 22 23  1  0
M  END
>  <%Rank>  (2) 
0.076336

>  <N_hits>  (2) 
2

>  <submitter_name>  (2) 
nan

>  <original SMILES>  (2) 
nan

>  <∆G_unbound>  (2) 
9.477816

>  <∆G_bound>  (2) 
-9.344528

>  <regarded>  (2) 
mArh-6mea_B_0_B_β,mArh-x0628_0_A_α

>  <ref_pdb>  (2) 
nan

>  <smiles>  (2) 
Cc1nc(C)n(C(CCOP(=O)(O)OP(=O)(O)O)CC(=O)O)n1

>  <submitter_email>  (2) 
nan

>  <disregarded>  (2) 


>  <LE>  (2) 
-0.818363

>  <submitter_institution>  (2) 
nan

>  <ref_mols>  (2) 
mArh-6mea_B_0_B,mArh-x0628_0_A

>  <N_constrained_atoms>  (2) 
21.0

>  <ref_url>  (2) 
nan

>  <method>  (2) 
nan

>  <comRMSD>  (2) 
0.379962

>  <N_unconstrained_atoms>  (2) 
2.0

>  <∆∆G>  (2) 
-18.822343

>  <runtime>  (2) 
32.204654

>  <generation_date>  (2) 
nan

$$$$
5CB5_0_A_γ-6YWK_0_E_α
     RDKit          3D

 24 25  0  0  0  0  0  0  0  0999 V2000
   -1.1640   12.6760   -4.3570 O   0  0  0  0  0  0  0  0  0  0  0  0
   -0.9350   14.0760   -4.3770 C   0  0  1  0  0  0  0  0  0  0  0  0
   -1.0890   14.7790   -3.0440 C   0  0  0  0  0  0  0  0  0  0  0  0
    0.5230   14.3880   -4.6040 C   0  0  1  0  0  0  0  0  0  0  0  0
    1.0270   13.9260   -5.8310 O   0  0  0  0  0  0  0  0  0  0  0  0
   -0.2090   15.9260   -3.0970 O   0  0  0  0  0  0  0  0  0  0  0  0
    0.5020   15.8870   -4.3450 C   0  0  2  0  0  0  0  0  0  0  0  0
   -0.1230   16.7950   -5.4180 C   0  0  0  0  0  0  0  0  0  0  0  0
   -0.2960   18.2900   -5.1860 C   0  0  0  0  0  0  0  0  0  0  0  0
    0.5880   19.0020   -6.0470 O   0  0  0  0  0  0  0  0  0  0  0  0
    0.1410   19.7820   -7.3940 S   0  0  0  0  0  0  0  0  0  0  0  0
    1.1990   20.9720   -7.6560 O   0  0  0  0  0  0  0  0  0  0  0  0
    0.0840   18.7800   -8.6540 O   0  0  0  0  0  0  0  0  0  0  0  0
   -1.4680   20.5710   -7.1810 C   0  0  0  0  0  0  0  0  0  0  0  0
   -1.6780   21.5990   -8.2960 C   0  0  0  0  0  0  0  0  0  0  0  0
   -2.8630   22.5130   -8.2820 N   0  0  0  0  0  0  0  0  0  0  0  0
   -2.9000   23.6370   -7.3380 C   0  0  0  0  0  0  0  0  0  0  0  0
   -4.1870   21.9830   -8.6370 C   0  0  0  0  0  0  0  0  0  0  0  0
   -4.0020   23.5390   -6.2520 C   0  0  0  0  0  0  0  0  0  0  0  0
   -5.1320   21.9180   -7.4150 C   0  0  0  0  0  0  0  0  0  0  0  0
   -5.2980   23.1990   -6.7960 N   0  0  0  0  0  0  0  0  0  0  0  0
   -5.6310   24.1770   -7.8190 C   0  0  0  0  0  0  0  0  0  0  0  0
   -6.8950   24.0920   -8.6940 C   0  0  0  0  0  0  0  0  0  0  0  0
   -7.1870   22.7640   -9.1200 O   0  0  0  0  0  0  0  0  0  0  0  0
  2  1  1  1
  2  3  1  0
  2  4  1  0
  4  5  1  6
  3  6  1  0
  4  7  1  0
  6  7  1  0
  7  8  1  6
  8  9  1  0
  9 10  1  0
 11 10  1  0
 11 12  1  0
 11 13  1  0
 11 14  1  0
 14 15  1  0
 15 16  1  0
 16 17  1  0
 16 18  1  0
 17 19  1  0
 18 20  1  0
 19 21  1  0
 20 21  1  0
 21 22  1  0
 22 23  1  0
 23 24  1  0
M  END
>  <%Rank>  (3) 
0.152672

>  <N_hits>  (3) 
2

>  <submitter_name>  (3) 
nan

>  <original SMILES>  (3) 
nan

>  <∆G_unbound>  (3) 
3.042048

>  <∆G_bound>  (3) 
-10.674986

>  <regarded>  (3) 
5CB5_0_A_γ,6YWK_0_E_α

>  <ref_pdb>  (3) 
nan

>  <smiles>  (3) 
OCCN1CCN(CCS(O)(O)OCCC2OCC(O)C2O)CC1

>  <submitter_email>  (3) 
nan

>  <disregarded>  (3) 


>  <LE>  (3) 
-0.571543

>  <submitter_institution>  (3) 
nan

>  <ref_mols>  (3) 
5CB5_0_A,6YWK_0_E

>  <N_constrained_atoms>  (3) 
23.0

>  <ref_url>  (3) 
nan

>  <method>  (3) 
nan

>  <comRMSD>  (3) 
0.337413

>  <N_unconstrained_atoms>  (3) 
1.0

>  <∆∆G>  (3) 
-13.717034

>  <runtime>  (3) 
42.411475

>  <generation_date>  (3) 
nan

$$$$
6YWK_0_E_α-5CMS_0_K_γ
     RDKit          3D

 24 25  0  0  0  0  0  0  0  0999 V2000
    1.1950   20.9370   -7.6350 O   0  0  0  0  0  0  0  0  0  0  0  0
    0.1480   19.7430   -7.3600 S   0  0  0  0  0  0  0  0  0  0  0  0
    0.6940   19.0400   -6.0020 O   0  0  0  0  0  0  0  0  0  0  0  0
    0.1110   18.7600   -8.6360 O   0  0  0  0  0  0  0  0  0  0  0  0
   -1.4260   20.5940   -7.1730 C   0  0  0  0  0  0  0  0  0  0  0  0
   -1.4440   21.9450   -7.9070 C   0  0  0  0  0  0  0  0  0  0  0  0
   -0.0420   18.2100   -5.1050 C   0  0  0  0  0  0  0  0  0  0  0  0
    0.1380   16.7620   -5.5330 C   0  0  0  0  0  0  0  0  0  0  0  0
   -2.6890   22.7140   -8.2070 N   0  0  0  0  0  0  0  0  0  0  0  0
   -3.1450   23.6940   -7.2340 C   0  0  0  0  0  0  0  0  0  0  0  0
   -3.8110   22.0120   -8.8490 C   0  0  0  0  0  0  0  0  0  0  0  0
    0.6520   15.6640   -4.5810 C   0  0  1  0  0  0  0  0  0  0  0  0
   -4.2750   23.1650   -6.3140 C   0  0  0  0  0  0  0  0  0  0  0  0
   -4.9240   21.5330   -7.8770 C   0  0  0  0  0  0  0  0  0  0  0  0
    0.0650   15.7980   -3.2670 O   0  0  0  0  0  0  0  0  0  0  0  0
    0.3410   14.2340   -5.0680 C   0  0  1  0  0  0  0  0  0  0  0  0
    1.3690   13.3020   -4.6860 O   0  0  0  0  0  0  0  0  0  0  0  0
   -5.4480   22.6290   -7.0430 N   0  0  0  0  0  0  0  0  0  0  0  0
   -0.6930   14.6130   -2.9850 C   0  0  0  0  0  0  0  0  0  0  0  0
   -0.9350   13.9080   -4.3100 C   0  0  2  0  0  0  0  0  0  0  0  0
   -5.8040   23.7870   -7.8860 C   0  0  0  0  0  0  0  0  0  0  0  0
   -1.1460   12.5060   -4.1670 O   0  0  0  0  0  0  0  0  0  0  0  0
   -6.8940   23.6390   -8.9570 C   0  0  0  0  0  0  0  0  0  0  0  0
   -7.2540   22.2790   -9.1620 O   0  0  0  0  0  0  0  0  0  0  0  0
  2  1  1  0
  2  3  1  0
  2  4  1  0
  2  5  1  0
  5  6  1  0
  3  7  1  0
  7  8  1  0
  6  9  1  0
  9 10  1  0
  9 11  1  0
 12  8  1  6
 10 13  1  0
 11 14  1  0
 12 15  1  0
 12 16  1  0
 16 17  1  1
 13 18  1  0
 14 18  1  0
 15 19  1  0
 16 20  1  0
 19 20  1  0
 18 21  1  0
 20 22  1  1
 21 23  1  0
 23 24  1  0
M  END
>  <%Rank>  (4) 
0.229008

>  <N_hits>  (4) 
2

>  <submitter_name>  (4) 
nan

>  <original SMILES>  (4) 
nan

>  <∆G_unbound>  (4) 
1.297727

>  <∆G_bound>  (4) 
-10.350381

>  <regarded>  (4) 
6YWK_0_E_α,5CMS_0_K_γ

>  <ref_pdb>  (4) 
nan

>  <smiles>  (4) 
OCCN1CCN(CCS(O)(O)OCCC2OCC(O)C2O)CC1

>  <submitter_email>  (4) 
nan

>  <disregarded>  (4) 


>  <LE>  (4) 
-0.485338

>  <submitter_institution>  (4) 
nan

>  <ref_mols>  (4) 
6YWK_0_E,5CMS_0_K

>  <N_constrained_atoms>  (4) 
23.0

>  <ref_url>  (4) 
nan

>  <method>  (4) 
nan

>  <comRMSD>  (4) 
0.323864

>  <N_unconstrained_atoms>  (4) 
1.0

>  <∆∆G>  (4) 
-11.648108

>  <runtime>  (4) 
48.036242

>  <generation_date>  (4) 
nan

$$$$
5CB5_0_B_γ-mArh-1vhu_0_A_α
     RDKit          3D

 21 22  0  0  0  0  0  0  0  0999 V2000
   -0.6240   12.4060   -3.9970 O   0  0  0  0  0  0  0  0  0  0  0  0
   -0.9640   13.7840   -4.0340 C   0  0  1  0  0  0  0  0  0  0  0  0
   -0.5490   14.5690   -2.7880 C   0  0  0  0  0  0  0  0  0  0  0  0
   -0.1670   14.4730   -5.1180 C   0  0  2  0  0  0  0  0  0  0  0  0
    1.1770   13.9970   -5.1020 O   0  0  0  0  0  0  0  0  0  0  0  0
   -0.0180   15.8260   -3.2390 O   0  0  0  0  0  0  0  0  0  0  0  0
   -0.3660   15.9030   -4.6230 C   0  0  1  0  0  0  0  0  0  0  0  0
    0.2460   17.0810   -5.3740 C   0  0  0  0  0  0  0  0  0  0  0  0
   -0.7680   17.9530   -6.1210 C   0  0  0  0  0  0  0  0  0  0  0  0
   -0.2780   19.3190   -6.2530 N   0  0  0  0  0  0  0  0  0  0  0  0
    0.0740   19.9030   -7.7920 S   0  0  2  0  0  0  0  0  0  0  0  0
    0.2460   18.7590   -8.6770 O   0  0  0  0  0  0  0  0  0  0  0  0
    1.1520   20.8780   -7.6100 O   0  0  0  0  0  0  0  0  0  0  0  0
   -1.4790   20.6620   -8.2650 C   0  0  0  0  0  0  0  0  0  0  0  0
   -1.8230   21.9840   -7.6160 C   0  0  0  0  0  0  0  0  0  0  0  0
   -3.2470   22.3850   -7.7240 N   0  0  0  0  0  0  0  0  0  0  0  0
   -3.6660   22.7900   -9.0700 C   0  0  0  0  0  0  0  0  0  0  0  0
   -3.6660   23.3660   -6.7100 C   0  0  0  0  0  0  0  0  0  0  0  0
   -5.1340   23.1900   -9.1760 C   0  0  0  0  0  0  0  0  0  0  0  0
   -5.1320   23.7680   -6.8770 C   0  0  0  0  0  0  0  0  0  0  0  0
   -5.4700   24.1730   -8.2040 O   0  0  0  0  0  0  0  0  0  0  0  0
  2  1  1  1
  2  3  1  0
  2  4  1  0
  4  5  1  1
  3  6  1  0
  4  7  1  0
  6  7  1  0
  7  8  1  6
  8  9  1  0
  9 10  1  0
 10 11  2  0
 11 12  2  0
 11 13  1  1
 11 14  1  0
 14 15  1  0
 15 16  1  0
 16 17  1  0
 16 18  1  0
 17 19  1  0
 18 20  1  0
 19 21  1  0
 20 21  1  0
M  CHG  1  13  -1
M  END
>  <%Rank>  (5) 
0.305344

>  <N_hits>  (5) 
2

>  <submitter_name>  (5) 
nan

>  <original SMILES>  (5) 
nan

>  <∆G_unbound>  (5) 
0.828584

>  <∆G_bound>  (5) 
-14.410431

>  <regarded>  (5) 
5CB5_0_B_γ,mArh-1vhu_0_A_α

>  <ref_pdb>  (5) 
nan

>  <smiles>  (5) 
O=S([O-])(CCN1CCOCC1)=NCCC1OCC(O)C1O

>  <submitter_email>  (5) 
nan

>  <disregarded>  (5) 


>  <LE>  (5) 
-0.725667

>  <submitter_institution>  (5) 
nan

>  <ref_mols>  (5) 
5CB5_0_B,mArh-1vhu_0_A

>  <N_constrained_atoms>  (5) 
20.0

>  <ref_url>  (5) 
nan

>  <method>  (5) 
nan

>  <comRMSD>  (5) 
0.402096

>  <N_unconstrained_atoms>  (5) 
1.0

>  <∆∆G>  (5) 
-15.239015

>  <runtime>  (5) 
28.12646

>  <generation_date>  (5) 
nan

$$$$
mArh-mac-242_0_A_α-mArh-1vhu_0_A_α
     RDKit          3D

 27 29  0  0  0  0  0  0  0  0999 V2000
   -4.0330   14.7380    1.6830 N   0  0  0  0  0  0  0  0  0  0  0  0
   -2.7440   14.6260    1.1380 C   0  0  0  0  0  0  0  0  0  0  0  0
   -1.7290   14.4060    1.9850 N   0  0  0  0  0  0  0  0  0  0  0  0
   -2.5600   14.7570   -0.2540 C   0  0  0  0  0  0  0  0  0  0  0  0
   -1.2390   14.6530   -0.7470 C   0  0  0  0  0  0  0  0  0  0  0  0
   -0.4860   14.3020    1.4860 C   0  0  0  0  0  0  0  0  0  0  0  0
   -3.6060   14.9880   -1.1750 C   0  0  0  0  0  0  0  0  0  0  0  0
   -0.1890   14.4200    0.1460 C   0  0  0  0  0  0  0  0  0  0  0  0
   -0.9940   14.7800   -2.1290 C   0  0  0  0  0  0  0  0  0  0  0  0
   -3.3540   15.1160   -2.5490 C   0  0  0  0  0  0  0  0  0  0  0  0
   -2.0380   15.0170   -3.0410 C   0  0  0  0  0  0  0  0  0  0  0  0
   -1.7220   15.1700   -4.5250 C   0  0  0  0  0  0  0  0  0  0  0  0
   -1.4480   16.6440   -4.9360 C   0  0  0  0  0  0  0  0  0  0  0  0
    0.0090   17.1290   -4.7230 C   0  0  0  0  0  0  0  0  0  0  0  0
    0.6230   18.0850   -5.7670 C   0  0  0  0  0  0  0  0  0  0  0  0
   -0.3790   19.0320   -6.3090 N   0  0  0  0  0  0  0  0  0  0  0  0
    0.0400   19.7910   -7.7730 S   0  0  2  0  0  0  0  0  0  0  0  0
    0.2570   18.7240   -8.7280 O   0  0  0  0  0  0  0  0  0  0  0  0
    1.1050   20.7630   -7.4920 O   0  0  0  0  0  0  0  0  0  0  0  0
   -1.5120   20.5870   -8.1960 C   0  0  0  0  0  0  0  0  0  0  0  0
   -1.8030   21.9310   -7.5630 C   0  0  0  0  0  0  0  0  0  0  0  0
   -3.2540   22.2690   -7.6290 N   0  0  0  0  0  0  0  0  0  0  0  0
   -3.6360   22.6740   -8.9990 C   0  0  0  0  0  0  0  0  0  0  0  0
   -3.6970   23.3650   -6.7360 C   0  0  0  0  0  0  0  0  0  0  0  0
   -5.1040   23.0690   -9.1730 C   0  0  0  0  0  0  0  0  0  0  0  0
   -5.1470   23.8070   -6.9520 C   0  0  0  0  0  0  0  0  0  0  0  0
   -5.4110   24.1610   -8.3140 O   0  0  0  0  0  0  0  0  0  0  0  0
  1  2  1  0
  2  3  2  0
  2  4  1  0
  4  5  2  0
  3  6  1  0
  4  7  1  0
  5  8  1  0
  6  8  2  0
  5  9  1  0
  7 10  2  0
  9 11  2  0
 10 11  1  0
 11 12  1  0
 12 13  1  0
 13 14  1  0
 14 15  1  0
 15 16  1  0
 16 17  2  0
 17 18  2  0
 17 19  1  1
 17 20  1  0
 20 21  1  0
 21 22  1  0
 22 23  1  0
 22 24  1  0
 23 25  1  0
 24 26  1  0
 25 27  1  0
 26 27  1  0
M  CHG  1  19  -1
M  END
>  <%Rank>  (6) 
0.381679

>  <N_hits>  (6) 
2

>  <submitter_name>  (6) 
nan

>  <original SMILES>  (6) 
nan

>  <∆G_unbound>  (6) 
0.121166

>  <∆G_bound>  (6) 
-22.558759

>  <regarded>  (6) 
mArh-mac-242_0_A_α,mArh-1vhu_0_A_α

>  <ref_pdb>  (6) 
nan

>  <smiles>  (6) 
Nc1nccc2cc(CCCCN=S(=O)([O-])CCN3CCOCC3)ccc12

>  <submitter_email>  (6) 
nan

>  <disregarded>  (6) 


>  <LE>  (6) 
-0.839997

>  <submitter_institution>  (6) 
nan

>  <ref_mols>  (6) 
mArh-mac-242_0_A,mArh-1vhu_0_A

>  <N_constrained_atoms>  (6) 
23.0

>  <ref_url>  (6) 
nan

>  <method>  (6) 
nan

>  <comRMSD>  (6) 
0.455422

>  <N_unconstrained_atoms>  (6) 
4.0

>  <∆∆G>  (6) 
-22.679925

>  <runtime>  (6) 
61.005896

>  <generation_date>  (6) 
nan

$$$$
mArh-5cb5_O_0_O_α-6YWK_0_E_α
     RDKit          3D

 16 16  0  0  0  0  0  0  0  0999 V2000
   -1.7360   21.7170   -8.1750 C   0  0  0  0  0  0  0  0  0  0  0  0
   -1.4960   20.5090   -7.2760 C   0  0  0  0  0  0  0  0  0  0  0  0
    0.1250   19.7580   -7.4470 S   0  0  0  0  0  0  0  0  0  0  0  0
   -3.1590   21.9880   -8.7120 C   0  0  1  0  0  0  0  0  0  0  0  0
   -4.0930   21.0220   -8.1890 O   0  0  0  0  0  0  0  0  0  0  0  0
   -3.7480   23.3810   -8.4700 C   0  0  1  0  0  0  0  0  0  0  0  0
   -4.3060   24.0480   -9.5860 O   0  0  0  0  0  0  0  0  0  0  0  0
    1.2150   20.9290   -7.5810 O   0  0  0  0  0  0  0  0  0  0  0  0
    0.4710   18.8880   -6.1550 O   0  0  0  0  0  0  0  0  0  0  0  0
    0.1570   18.8000   -8.7340 O   0  0  0  0  0  0  0  0  0  0  0  0
   -5.2420   21.7220   -7.7300 C   0  0  2  0  0  0  0  0  0  0  0  0
   -4.7990   23.1400   -7.4090 C   0  0  2  0  0  0  0  0  0  0  0  0
   -5.7510   21.0690   -6.5870 O   0  0  0  0  0  0  0  0  0  0  0  0
   -5.8240   24.1370   -7.4680 O   0  0  0  0  0  0  0  0  0  0  0  0
   -6.6280   24.1660   -8.6630 C   0  0  0  0  0  0  0  0  0  0  0  0
   -7.1150   22.8800   -8.9960 O   0  0  0  0  0  0  0  0  0  0  0  0
  1  2  1  0
  2  3  1  0
  4  1  1  1
  4  5  1  0
  4  6  1  0
  6  7  1  6
  3  8  1  0
  3  9  1  0
  3 10  1  0
  5 11  1  0
  6 12  1  0
 11 12  1  0
 11 13  1  1
 12 14  1  6
 14 15  1  0
 15 16  1  0
M  END
>  <%Rank>  (7) 
0.458015

>  <N_hits>  (7) 
2

>  <submitter_name>  (7) 
nan

>  <original SMILES>  (7) 
nan

>  <∆G_unbound>  (7) 
2.747097

>  <∆G_bound>  (7) 
-7.723868

>  <regarded>  (7) 
mArh-5cb5_O_0_O_α,6YWK_0_E_α

>  <ref_pdb>  (7) 
nan

>  <smiles>  (7) 
OCOC1C(O)OC(CCS(O)(O)O)C1O

>  <submitter_email>  (7) 
nan

>  <disregarded>  (7) 


>  <LE>  (7) 
-0.654435

>  <submitter_institution>  (7) 
nan

>  <ref_mols>  (7) 
mArh-5cb5_O_0_O,6YWK_0_E

>  <N_constrained_atoms>  (7) 
16.0

>  <ref_url>  (7) 
nan

>  <method>  (7) 
nan

>  <comRMSD>  (7) 
0.318719

>  <N_unconstrained_atoms>  (7) 
0.0

>  <∆∆G>  (7) 
-10.470965

>  <runtime>  (7) 
27.566417

>  <generation_date>  (7) 
nan

$$$$
mArh-5cb5_F_1_F_β-mArh-x0290_0_A_α
     RDKit          3D

 24 24  0  0  0  0  0  0  0  0999 V2000
   -1.6520   20.3830   -8.2470 O   0  0  0  0  0  0  0  0  0  0  0  0
   -0.2890   19.6510   -7.8790 P   0  0  0  0  0  0  0  0  0  0  0  0
   -0.4120   19.0410   -6.4410 O   0  0  0  0  0  0  0  0  0  0  0  0
    0.1700   18.6690   -8.8840 O   0  0  0  0  0  0  0  0  0  0  0  0
    0.7180   20.8760   -7.7710 O   0  0  0  0  0  0  0  0  0  0  0  0
   -1.6470   18.1890   -5.9650 P   0  0  0  0  0  0  0  0  0  0  0  0
   -1.0550   16.8530   -5.3160 O   0  0  0  0  0  0  0  0  0  0  0  0
   -2.7000   17.9610   -6.9830 O   0  0  0  0  0  0  0  0  0  0  0  0
   -2.1460   19.1030   -4.7690 O   0  0  0  0  0  0  0  0  0  0  0  0
   -0.6290   16.8600   -3.9680 C   0  0  0  0  0  0  0  0  0  0  0  0
   -1.6280   16.0110   -3.1700 C   0  0  0  0  0  0  0  0  0  0  0  0
   -0.9680   14.8430   -2.4380 C   0  0  0  0  0  0  0  0  0  0  0  0
   -1.2680   14.7650   -0.9580 C   0  0  0  0  0  0  0  0  0  0  0  0
   -0.2310   14.6000   -0.0410 C   0  0  0  0  0  0  0  0  0  0  0  0
   -2.5800   14.8520   -0.4750 C   0  0  0  0  0  0  0  0  0  0  0  0
   -0.5470   14.5290    1.3010 C   0  0  0  0  0  0  0  0  0  0  0  0
   -2.8100   14.7700    0.8930 C   0  0  0  0  0  0  0  0  0  0  0  0
   -4.0890   14.8380    1.4600 N   0  0  0  0  0  0  0  0  0  0  0  0
   -1.8050   14.6100    1.7870 N   0  0  0  0  0  0  0  0  0  0  0  0
   -5.2660   14.4890    0.8250 C   0  0  0  0  0  0  0  0  0  0  0  0
   -5.4520   14.4850   -0.3900 O   0  0  0  0  0  0  0  0  0  0  0  0
   -6.3960   14.0670    1.7800 C   0  0  0  0  0  0  0  0  0  0  0  0
   -7.6360   13.7360    1.0450 N   0  0  0  0  0  0  0  0  0  0  0  0
   -8.4770   14.8960    0.7730 C   0  0  0  0  0  0  0  0  0  0  0  0
  1  2  1  0
  2  3  1  0
  2  4  2  0
  2  5  1  0
  3  6  1  0
  6  7  1  0
  6  8  2  0
  6  9  1  0
  7 10  1  0
 10 11  1  0
 11 12  1  0
 12 13  1  0
 13 14  2  0
 13 15  1  0
 14 16  1  0
 15 17  2  0
 17 18  1  0
 16 19  2  0
 17 19  1  0
 18 20  1  0
 20 21  2  0
 20 22  1  0
 22 23  1  0
 23 24  1  0
M  END
>  <%Rank>  (8) 
0.534351

>  <N_hits>  (8) 
2

>  <submitter_name>  (8) 
nan

>  <original SMILES>  (8) 
nan

>  <∆G_unbound>  (8) 
0.574429

>  <∆G_bound>  (8) 
-14.508467

>  <regarded>  (8) 
mArh-5cb5_F_1_F_β,mArh-x0290_0_A_α

>  <ref_pdb>  (8) 
nan

>  <smiles>  (8) 
CNCC(=O)Nc1cc(CCCOP(=O)(O)OP(=O)(O)O)ccn1

>  <submitter_email>  (8) 
nan

>  <disregarded>  (8) 


>  <LE>  (8) 
-0.628454

>  <submitter_institution>  (8) 
nan

>  <ref_mols>  (8) 
mArh-5cb5_F_1_F,mArh-x0290_0_A

>  <N_constrained_atoms>  (8) 
22.0

>  <ref_url>  (8) 
nan

>  <method>  (8) 
nan

>  <comRMSD>  (8) 
0.397705

>  <N_unconstrained_atoms>  (8) 
2.0

>  <∆∆G>  (8) 
-15.082896

>  <runtime>  (8) 
58.267957

>  <generation_date>  (8) 
nan

$$$$
mArh-x0253_0_A_α-mArh-x0421_0_A_α
     RDKit          3D

 27 29  0  0  0  0  0  0  0  0999 V2000
    0.3160   11.9620   -5.3830 N   0  0  0  0  0  0  0  0  0  0  0  0
    1.0640   11.6800   -6.5020 C   0  0  0  0  0  0  0  0  0  0  0  0
    2.1800   12.1340   -6.6540 O   0  0  0  0  0  0  0  0  0  0  0  0
    0.8440   12.8670   -4.3700 C   0  0  0  0  0  0  0  0  0  0  0  0
    0.7990   12.2080   -2.9960 C   0  0  0  0  0  0  0  0  0  0  0  0
    0.4540   10.7500   -7.5110 C   0  0  0  0  0  0  0  0  0  0  0  0
    0.9110   12.8730   -1.9090 N   0  0  0  0  0  0  0  0  0  0  0  0
    0.6140   10.8780   -2.9740 O   0  0  0  0  0  0  0  0  0  0  0  0
   -0.5220    9.8330   -7.1240 C   0  0  0  0  0  0  0  0  0  0  0  0
    0.8580   10.7890   -8.8580 C   0  0  0  0  0  0  0  0  0  0  0  0
    1.0550   14.3240   -1.9150 C   0  0  0  0  0  0  0  0  0  0  0  0
   -1.0950    8.9650   -8.0570 C   0  0  0  0  0  0  0  0  0  0  0  0
    0.2920    9.9280   -9.7890 C   0  0  0  0  0  0  0  0  0  0  0  0
   -2.1430    7.9830   -7.6370 C   0  0  0  0  0  0  0  0  0  0  0  0
   -0.1900   14.9640   -1.2500 C   0  0  0  0  0  0  0  0  0  0  0  0
   -0.6810    9.0180   -9.3940 C   0  0  0  0  0  0  0  0  0  0  0  0
   -1.3590   15.0860   -2.1770 N   0  0  0  0  0  0  0  0  0  0  0  0
   -2.6530   15.1120   -1.8780 C   0  0  0  0  0  0  0  0  0  0  0  0
   -3.5820   15.2370   -2.8730 N   0  0  0  0  0  0  0  0  0  0  0  0
   -3.3270   15.0110   -0.5900 C   0  0  0  0  0  0  0  0  0  0  0  0
   -2.7220   15.0060    0.6440 C   0  0  0  0  0  0  0  0  0  0  0  0
   -4.7050   14.8980   -0.4500 N   0  0  0  0  0  0  0  0  0  0  0  0
   -3.7360   14.8840    1.5340 N   0  0  0  0  0  0  0  0  0  0  0  0
   -4.9060   14.8200    0.8470 C   0  0  0  0  0  0  0  0  0  0  0  0
   -6.2870   14.6720    1.5550 C   0  0  0  0  0  0  0  0  0  0  0  0
   -7.5490   14.6690    0.7310 C   0  0  0  0  0  0  0  0  0  0  0  0
   -7.0760   13.4030    1.3800 C   0  0  0  0  0  0  0  0  0  0  0  0
  1  2  1  0
  2  3  2  0
  1  4  1  0
  4  5  1  0
  2  6  1  0
  5  7  2  3
  5  8  1  0
  6  9  2  0
  6 10  1  0
  7 11  1  0
  9 12  1  0
 10 13  2  0
 12 14  1  0
 11 15  1  0
 12 16  2  0
 13 16  1  0
 15 17  1  0
 17 18  2  3
 18 19  1  0
 18 20  1  0
 20 21  2  0
 20 22  1  0
 21 23  1  0
 22 24  2  0
 23 24  1  0
 24 25  1  0
 25 26  1  0
 25 27  1  0
 26 27  1  0
M  END
>  <%Rank>  (9) 
0.610687

>  <N_hits>  (9) 
2

>  <submitter_name>  (9) 
nan

>  <original SMILES>  (9) 
nan

>  <∆G_unbound>  (9) 
2.870584

>  <∆G_bound>  (9) 
-4.880682

>  <regarded>  (9) 
mArh-x0253_0_A_α,mArh-x0421_0_A_α

>  <ref_pdb>  (9) 
nan

>  <smiles>  (9) 
Cc1cccc(C(=O)NCC(O)=NCCN=C(N)c2c[nH]c(C3CC3)n2)c1

>  <submitter_email>  (9) 
nan

>  <disregarded>  (9) 


>  <LE>  (9) 
-0.287084

>  <submitter_institution>  (9) 
nan

>  <ref_mols>  (9) 
mArh-x0253_0_A,mArh-x0421_0_A

>  <N_constrained_atoms>  (9) 
25.0

>  <ref_url>  (9) 
nan

>  <method>  (9) 
nan

>  <comRMSD>  (9) 
0.28521

>  <N_unconstrained_atoms>  (9) 
2.0

>  <∆∆G>  (9) 
-7.751265

>  <runtime>  (9) 
56.553393

>  <generation_date>  (9) 
nan

$$$$
mArh-EU0960_0_A_α-mArh-5cb5_C_0_C_β
     RDKit          3D

 31 32  0  0  0  0  0  0  0  0999 V2000
   -2.2730   10.1460   -4.9360 C   0  0  0  0  0  0  0  0  0  0  0  0
   -1.1040   10.4250   -5.8250 C   0  0  0  0  0  0  0  0  0  0  0  0
   -0.7840    9.5490   -6.8900 N   0  0  0  0  0  0  0  0  0  0  0  0
   -0.2350   11.4560   -5.7640 C   0  0  0  0  0  0  0  0  0  0  0  0
   -1.8720    8.9050   -7.6550 C   0  0  0  0  0  0  0  0  0  0  0  0
   -0.2650   12.5280   -4.7990 N   0  0  0  0  0  0  0  0  0  0  0  0
    0.7290   11.2590   -6.8750 C   0  0  0  0  0  0  0  0  0  0  0  0
    0.1580   10.2720   -7.6980 N   0  0  0  0  0  0  0  0  0  0  0  0
    1.7710   11.8620   -6.9600 O   0  0  0  0  0  0  0  0  0  0  0  0
    0.7220   12.2070   -3.4030 S   0  0  0  0  0  0  0  0  0  0  0  0
    0.0590   13.8970   -5.3680 C   0  0  0  0  0  0  0  0  0  0  0  0
    0.8580    9.6160   -8.7470 C   0  0  0  0  0  0  0  0  0  0  0  0
    0.6830   10.7780   -3.1540 O   0  0  0  0  0  0  0  0  0  0  0  0
    0.3480   13.1050   -2.3390 O   0  0  0  0  0  0  0  0  0  0  0  0
    2.3640   12.6870   -3.9490 C   0  0  0  0  0  0  0  0  0  0  0  0
    0.0080   15.0400   -4.3360 C   0  0  0  0  0  0  0  0  0  0  0  0
    1.2840   10.3150   -9.8850 C   0  0  0  0  0  0  0  0  0  0  0  0
    1.1480    8.2480   -8.6750 C   0  0  0  0  0  0  0  0  0  0  0  0
    0.0300   16.4300   -4.9950 C   0  0  0  0  0  0  0  0  0  0  0  0
    1.9760    9.6680  -10.9140 C   0  0  0  0  0  0  0  0  0  0  0  0
    1.8430    7.6010   -9.7030 C   0  0  0  0  0  0  0  0  0  0  0  0
   -1.2990   16.7660   -5.4010 O   0  0  0  0  0  0  0  0  0  0  0  0
    2.2570    8.3130  -10.8230 C   0  0  0  0  0  0  0  0  0  0  0  0
   -1.6380   18.2180   -6.0190 P   0  0  1  0  0  0  0  0  0  0  0  0
   -0.2570   18.8610   -6.4350 O   0  0  0  0  0  0  0  0  0  0  0  0
   -2.6630   18.1770   -7.0760 O   0  0  0  0  0  0  0  0  0  0  0  0
   -2.0440   19.1050   -4.7610 O   0  0  0  0  0  0  0  0  0  0  0  0
   -0.1170   19.7670   -7.7170 P   0  0  0  0  0  0  0  0  0  0  0  0
   -1.5380   20.3300   -8.1550 O   0  0  0  0  0  0  0  0  0  0  0  0
    0.9970   20.7640   -7.6450 O   0  0  0  0  0  0  0  0  0  0  0  0
    0.1190   18.6890   -8.8690 O   0  0  0  0  0  0  0  0  0  0  0  0
  1  2  1  0
  2  3  1  0
  2  4  2  0
  3  5  1  0
  4  6  1  0
  4  7  1  0
  3  8  1  0
  7  8  1  0
  7  9  2  0
 10  6  1  0
  6 11  1  0
  8 12  1  0
 10 13  2  0
 10 14  2  0
 10 15  1  0
 11 16  1  0
 12 17  2  0
 12 18  1  0
 16 19  1  0
 17 20  1  0
 18 21  2  0
 19 22  1  0
 20 23  2  0
 21 23  1  0
 22 24  1  0
 24 25  1  0
 24 26  2  0
 24 27  1  1
 25 28  1  0
 28 29  1  0
 28 30  2  0
 28 31  1  0
M  END
>  <%Rank>  (10) 
0.687023

>  <N_hits>  (10) 
2

>  <submitter_name>  (10) 
nan

>  <original SMILES>  (10) 
nan

>  <∆G_unbound>  (10) 
1.035295

>  <∆G_bound>  (10) 
-14.465089

>  <regarded>  (10) 
mArh-EU0960_0_A_α,mArh-5cb5_C_0_C_β

>  <ref_pdb>  (10) 
nan

>  <smiles>  (10) 
Cc1c(N(CCCOP(=O)(O)OP(=O)(O)O)S(C)(=O)=O)c(=O)n(-c2ccccc2)n1C

>  <submitter_email>  (10) 
nan

>  <disregarded>  (10) 


>  <LE>  (10) 
-0.500012

>  <submitter_institution>  (10) 
nan

>  <ref_mols>  (10) 
mArh-EU0960_0_A,mArh-5cb5_C_0_C

>  <N_constrained_atoms>  (10) 
28.0

>  <ref_url>  (10) 
nan

>  <method>  (10) 
nan

>  <comRMSD>  (10) 
0.422245

>  <N_unconstrained_atoms>  (10) 
3.0

>  <∆∆G>  (10) 
-15.500384

>  <runtime>  (10) 
50.333198

>  <generation_date>  (10) 
nan

$$$$
mArh-EU0860_0_A_α-mArh-x0766_0_A_α
     RDKit          3D

 24 26  0  0  0  0  0  0  0  0999 V2000
    1.7950    9.0810  -10.2600 C   0  0  0  0  0  0  0  0  0  0  0  0
    0.8930    9.4600   -9.1990 C   0  0  0  0  0  0  0  0  0  0  0  0
   -0.0980    8.7030   -8.6030 C   0  0  0  0  0  0  0  0  0  0  0  0
    2.2700    7.9590  -10.3920 O   0  0  0  0  0  0  0  0  0  0  0  0
    0.8170   10.6880   -8.5330 C   0  0  0  0  0  0  0  0  0  0  0  0
   -0.6790    9.5100   -7.6600 N   0  0  0  0  0  0  0  0  0  0  0  0
   -0.1300   10.7310   -7.5990 N   0  0  0  0  0  0  0  0  0  0  0  0
   -1.7820    9.1890   -6.7690 C   0  0  0  0  0  0  0  0  0  0  0  0
   -1.4510    8.9270   -5.2930 C   0  0  0  0  0  0  0  0  0  0  0  0
   -0.5800    9.9610   -4.5630 C   0  0  0  0  0  0  0  0  0  0  0  0
   -1.2020   10.6900   -3.3700 C   0  0  0  0  0  0  0  0  0  0  0  0
   -0.1190   10.9490   -2.4420 O   0  0  0  0  0  0  0  0  0  0  0  0
    0.4710   12.1930   -2.5750 C   0  0  0  0  0  0  0  0  0  0  0  0
    1.2340   12.6700   -1.7530 O   0  0  0  0  0  0  0  0  0  0  0  0
    0.1210   12.9720   -3.8450 C   0  0  2  0  0  0  0  0  0  0  0  0
    1.3910   13.2840   -4.6620 C   0  0  0  0  0  0  0  0  0  0  0  0
   -0.5180   14.3680   -3.6140 C   0  0  2  0  0  0  0  0  0  0  0  0
    1.6490   14.7860   -4.5020 C   0  0  0  0  0  0  0  0  0  0  0  0
    0.7010   15.2710   -3.4290 C   0  0  0  0  0  0  0  0  0  0  0  0
   -1.5770   14.5260   -2.5510 C   0  0  0  0  0  0  0  0  0  0  0  0
   -2.9350   14.7050   -2.7570 C   0  0  0  0  0  0  0  0  0  0  0  0
   -1.2900   14.5190   -1.1380 C   0  0  0  0  0  0  0  0  0  0  0  0
   -2.4140   14.6900   -0.3590 C   0  0  0  0  0  0  0  0  0  0  0  0
   -3.8220   14.8640   -1.3050 S   0  0  0  0  0  0  0  0  0  0  0  0
  1  2  1  0
  2  3  2  0
  1  4  2  0
  2  5  1  0
  3  6  1  0
  5  7  2  0
  6  7  1  0
  6  8  1  0
  8  9  1  0
  9 10  1  0
 10 11  1  0
 11 12  1  0
 12 13  1  0
 13 14  2  0
 15 13  1  1
 15 16  1  0
 15 17  1  0
 16 18  1  0
 17 19  1  0
 18 19  1  0
 17 20  1  1
 20 21  2  0
 20 22  1  0
 22 23  2  0
 21 24  1  0
 23 24  1  0
M  END
>  <%Rank>  (11) 
0.763359

>  <N_hits>  (11) 
2

>  <submitter_name>  (11) 
nan

>  <original SMILES>  (11) 
nan

>  <∆G_unbound>  (11) 
0.666848

>  <∆G_bound>  (11) 
-7.701472

>  <regarded>  (11) 
mArh-EU0860_0_A_α,mArh-x0766_0_A_α

>  <ref_pdb>  (11) 
nan

>  <smiles>  (11) 
O=Cc1cnn(CCCCOC(=O)C2CCCC2c2ccsc2)c1

>  <submitter_email>  (11) 
nan

>  <disregarded>  (11) 


>  <LE>  (11) 
-0.34868

>  <submitter_institution>  (11) 
nan

>  <ref_mols>  (11) 
mArh-EU0860_0_A,mArh-x0766_0_A

>  <N_constrained_atoms>  (11) 
21.0

>  <ref_url>  (11) 
nan

>  <method>  (11) 
nan

>  <comRMSD>  (11) 
0.231513

>  <N_unconstrained_atoms>  (11) 
3.0

>  <∆∆G>  (11) 
-8.36832

>  <runtime>  (11) 
36.566805

>  <generation_date>  (11) 
nan

$$$$
mArh-x0631_0_A_β-mArh-5cms_B_1_B_γ
     RDKit          3D

 17 18  0  0  0  0  0  0  0  0999 V2000
   -0.1920    8.8620   -6.5680 C   0  0  0  0  0  0  0  0  0  0  0  0
   -1.3420    8.2450   -7.3720 C   0  0  0  0  0  0  0  0  0  0  0  0
   -2.4840    9.2170   -7.6090 C   0  0  0  0  0  0  0  0  0  0  0  0
    0.6510    9.8010   -7.3430 N   0  0  0  0  0  0  0  0  0  0  0  0
    0.8080    9.3580   -8.7130 N   0  0  0  0  0  0  0  0  0  0  0  0
    0.0870   11.1250   -7.3340 N   0  0  0  0  0  0  0  0  0  0  0  0
    0.8210   12.0550   -6.3960 C   0  0  0  0  0  0  0  0  0  0  0  0
    0.8210   10.5820   -9.5000 C   0  0  0  0  0  0  0  0  0  0  0  0
    0.1560   11.6020   -8.7030 N   0  0  0  0  0  0  0  0  0  0  0  0
    0.1310   13.3140   -6.1110 O   0  0  0  0  0  0  0  0  0  0  0  0
    0.5530   13.9690   -4.9030 C   0  0  1  0  0  0  0  0  0  0  0  0
   -0.1410   15.3160   -4.6260 C   0  0  2  0  0  0  0  0  0  0  0  0
    0.1490   13.1510   -3.6670 C   0  0  2  0  0  0  0  0  0  0  0  0
   -0.8490   12.1830   -3.9960 O   0  0  0  0  0  0  0  0  0  0  0  0
    0.5130   16.5400   -5.2510 C   0  0  0  0  0  0  0  0  0  0  0  0
   -0.4030   14.1700   -2.6780 C   0  0  0  0  0  0  0  0  0  0  0  0
   -0.0960   15.4620   -3.2040 O   0  0  0  0  0  0  0  0  0  0  0  0
  1  2  1  0
  2  3  1  0
  1  4  1  0
  4  5  1  0
  4  6  1  0
  6  7  1  0
  5  8  1  0
  6  9  1  0
  8  9  1  0
  7 10  1  0
 11 10  1  6
 11 12  1  0
 11 13  1  0
 13 14  1  6
 12 15  1  6
 13 16  1  0
 12 17  1  0
 16 17  1  0
M  END
>  <%Rank>  (12) 
0.839695

>  <N_hits>  (12) 
2

>  <submitter_name>  (12) 
nan

>  <original SMILES>  (12) 
nan

>  <∆G_unbound>  (12) 
0.25603

>  <∆G_bound>  (12) 
-4.696444

>  <regarded>  (12) 
mArh-x0631_0_A_β,mArh-5cms_B_1_B_γ

>  <ref_pdb>  (12) 
nan

>  <smiles>  (12) 
CCCN1NCNN1COC1C(O)COC1C

>  <submitter_email>  (12) 
nan

>  <disregarded>  (12) 


>  <LE>  (12) 
-0.291322

>  <submitter_institution>  (12) 
nan

>  <ref_mols>  (12) 
mArh-x0631_0_A,mArh-5cms_B_1_B

>  <N_constrained_atoms>  (12) 
16.0

>  <ref_url>  (12) 
nan

>  <method>  (12) 
nan

>  <comRMSD>  (12) 
0.149251

>  <N_unconstrained_atoms>  (12) 
1.0

>  <∆∆G>  (12) 
-4.952474

>  <runtime>  (12) 
32.18458

>  <generation_date>  (12) 
nan

$$$$
6YWK_0_E_α-6WOJ_0_A_δ
     RDKit          3D

 29 31  0  0  0  0  0  0  0  0999 V2000
    1.1690   20.9370   -7.5880 O   0  0  0  0  0  0  0  0  0  0  0  0
    0.0150   19.8190   -7.4260 S   0  0  0  0  0  0  0  0  0  0  0  0
    0.1040   19.1230   -5.9860 O   0  0  0  0  0  0  0  0  0  0  0  0
    0.0610   18.7790   -8.6590 O   0  0  0  0  0  0  0  0  0  0  0  0
   -1.5560   20.6940   -7.3470 C   0  0  0  0  0  0  0  0  0  0  0  0
   -1.4750   22.0550   -8.0180 C   0  0  0  0  0  0  0  0  0  0  0  0
    0.6840   17.8580   -5.7440 C   0  0  0  0  0  0  0  0  0  0  0  0
    0.6660   17.6120   -4.2380 C   0  0  0  0  0  0  0  0  0  0  0  0
   -2.7410   22.8030   -8.2790 N   0  0  0  0  0  0  0  0  0  0  0  0
    0.4130   16.1600   -3.7980 C   0  0  0  0  0  0  0  0  0  0  0  0
   -3.0540   23.7990   -7.2510 C   0  0  0  0  0  0  0  0  0  0  0  0
   -3.9190   22.0450   -8.7150 C   0  0  0  0  0  0  0  0  0  0  0  0
   -0.6120   16.0010   -2.6540 C   0  0  0  0  0  0  0  0  0  0  0  0
   -4.1220   23.4140   -6.2100 C   0  0  0  0  0  0  0  0  0  0  0  0
   -4.9480   21.7740   -7.5940 C   0  0  0  0  0  0  0  0  0  0  0  0
   -5.3480   22.9300   -6.8420 N   0  0  0  0  0  0  0  0  0  0  0  0
   -1.2180   14.6920   -2.4610 N   0  0  0  0  0  0  0  0  0  0  0  0
   -5.7050   23.9570   -7.7850 C   0  0  0  0  0  0  0  0  0  0  0  0
   -1.3040   14.1290   -1.1020 C   0  0  2  0  0  0  0  0  0  0  0  0
   -2.5710   14.6680   -2.9780 C   0  0  0  0  0  0  0  0  0  0  0  0
   -6.8400   23.7800   -8.8080 C   0  0  0  0  0  0  0  0  0  0  0  0
   -2.7620   14.3850   -0.7110 C   0  0  2  0  0  0  0  0  0  0  0  0
   -3.4200   15.0530   -1.8630 N   0  0  0  0  0  0  0  0  0  0  0  0
   -0.3380   14.6820   -0.1560 N   0  0  0  0  0  0  0  0  0  0  0  0
   -7.1290   22.4070   -9.0590 O   0  0  0  0  0  0  0  0  0  0  0  0
   -0.5870   14.2790    1.2190 C   0  0  0  0  0  0  0  0  0  0  0  0
   -2.8030   15.1320    0.6350 C   0  0  1  0  0  0  0  0  0  0  0  0
   -4.1320   15.1190    1.2510 N   0  0  0  0  0  0  0  0  0  0  0  0
   -1.9410   14.5800    1.6430 N   0  0  0  0  0  0  0  0  0  0  0  0
  2  1  1  0
  2  3  1  0
  2  4  1  0
  2  5  1  0
  5  6  1  0
  3  7  1  0
  7  8  1  0
  6  9  1  0
  8 10  1  0
  9 11  1  0
  9 12  1  0
 10 13  1  0
 11 14  1  0
 12 15  1  0
 14 16  1  0
 15 16  1  0
 13 17  1  0
 16 18  1  0
 17 19  1  0
 17 20  1  0
 18 21  1  0
 19 22  1  0
 20 23  1  0
 22 23  1  6
 19 24  1  1
 21 25  1  0
 24 26  1  0
 22 27  1  0
 27 28  1  1
 26 29  1  0
 27 29  1  0
M  END
>  <%Rank>  (13) 
0.916031

>  <N_hits>  (13) 
2

>  <submitter_name>  (13) 
nan

>  <original SMILES>  (13) 
nan

>  <∆G_unbound>  (13) 
3.045533

>  <∆G_bound>  (13) 
-11.473217

>  <regarded>  (13) 
6YWK_0_E_α,6WOJ_0_A_δ

>  <ref_pdb>  (13) 
nan

>  <smiles>  (13) 
NC1NCNC2C1NCN2CCCCOS(O)(O)CCN1CCN(CCO)CC1

>  <submitter_email>  (13) 
nan

>  <disregarded>  (13) 


>  <LE>  (13) 
-0.500647

>  <submitter_institution>  (13) 
nan

>  <ref_mols>  (13) 
6YWK_0_E,6WOJ_0_A

>  <N_constrained_atoms>  (13) 
25.0

>  <ref_url>  (13) 
nan

>  <method>  (13) 
nan

>  <comRMSD>  (13) 
0.373588

>  <N_unconstrained_atoms>  (13) 
4.0

>  <∆∆G>  (13) 
-14.518751

>  <runtime>  (13) 
38.122022

>  <generation_date>  (13) 
nan

$$$$
mArh-5cb5_F_1_F_β-mArh-x0722_0_A_α
     RDKit          3D

 24 24  0  0  0  0  0  0  0  0999 V2000
   -1.6490   20.4130   -8.2870 O   0  0  0  0  0  0  0  0  0  0  0  0
   -0.2960   19.6640   -7.9320 P   0  0  0  0  0  0  0  0  0  0  0  0
   -0.4260   19.1490   -6.4530 O   0  0  0  0  0  0  0  0  0  0  0  0
    0.1470   18.6430   -8.8990 O   0  0  0  0  0  0  0  0  0  0  0  0
    0.7100   20.8930   -7.7970 O   0  0  0  0  0  0  0  0  0  0  0  0
   -1.6370   18.2550   -5.9730 P   0  0  0  0  0  0  0  0  0  0  0  0
   -0.9800   16.9970   -5.2390 O   0  0  0  0  0  0  0  0  0  0  0  0
   -2.6430   17.8930   -7.0040 O   0  0  0  0  0  0  0  0  0  0  0  0
   -2.2080   19.1800   -4.8250 O   0  0  0  0  0  0  0  0  0  0  0  0
   -0.7420   17.0640   -3.8600 C   0  0  0  0  0  0  0  0  0  0  0  0
    0.0970   15.9080   -3.3370 C   0  0  0  0  0  0  0  0  0  0  0  0
   -0.2470   15.5470   -1.8800 C   0  0  0  0  0  0  0  0  0  0  0  0
   -1.5110   14.6900   -1.7190 C   0  0  0  0  0  0  0  0  0  0  0  0
   -2.2150   14.8130   -0.4000 C   0  0  0  0  0  0  0  0  0  0  0  0
   -3.5480   15.1070   -0.1290 C   0  0  0  0  0  0  0  0  0  0  0  0
   -1.6180   14.6360    0.8290 N   0  0  0  0  0  0  0  0  0  0  0  0
   -0.2460   14.3170    1.1440 C   0  0  0  0  0  0  0  0  0  0  0  0
   -4.6770   15.3970   -1.0720 C   0  0  0  0  0  0  0  0  0  0  0  0
   -2.4680   14.7860    1.8490 N   0  0  0  0  0  0  0  0  0  0  0  0
   -3.6300   15.0660    1.2720 C   0  0  0  0  0  0  0  0  0  0  0  0
   -4.8260   15.2890    2.0900 C   0  0  0  0  0  0  0  0  0  0  0  0
   -5.9840   14.7020   -0.7110 C   0  0  0  0  0  0  0  0  0  0  0  0
   -7.1020   15.1930   -0.8240 O   0  0  0  0  0  0  0  0  0  0  0  0
   -5.8570   13.4300   -0.2270 N   0  0  0  0  0  0  0  0  0  0  0  0
  1  2  1  0
  2  3  1  0
  2  4  2  0
  2  5  1  0
  3  6  1  0
  6  7  1  0
  6  8  2  0
  6  9  1  0
  7 10  1  0
 10 11  1  0
 11 12  1  0
 12 13  1  0
 13 14  1  0
 14 15  2  0
 14 16  1  0
 16 17  1  0
 15 18  1  0
 16 19  1  0
 15 20  1  0
 19 20  2  0
 20 21  1  0
 18 22  1  0
 22 23  2  0
 22 24  1  0
M  END
>  <%Rank>  (14) 
0.992366

>  <N_hits>  (14) 
2

>  <submitter_name>  (14) 
nan

>  <original SMILES>  (14) 
nan

>  <∆G_unbound>  (14) 
0.935864

>  <∆G_bound>  (14) 
-14.614624

>  <regarded>  (14) 
mArh-5cb5_F_1_F_β,mArh-x0722_0_A_α

>  <ref_pdb>  (14) 
nan

>  <smiles>  (14) 
Cc1nn(C)c(CCCCOP(=O)(O)OP(=O)(O)O)c1CC(N)=O

>  <submitter_email>  (14) 
nan

>  <disregarded>  (14) 


>  <LE>  (14) 
-0.647937

>  <submitter_institution>  (14) 
nan

>  <ref_mols>  (14) 
mArh-5cb5_F_1_F,mArh-x0722_0_A

>  <N_constrained_atoms>  (14) 
21.0

>  <ref_url>  (14) 
nan

>  <method>  (14) 
nan

>  <comRMSD>  (14) 
0.392898

>  <N_unconstrained_atoms>  (14) 
3.0

>  <∆∆G>  (14) 
-15.550487

>  <runtime>  (14) 
36.798539

>  <generation_date>  (14) 
nan

$$$$
mArh-3q6z_0_A_β-mArh-2fav_B_0_B_δ
     RDKit          3D

 21 22  0  0  0  0  0  0  0  0999 V2000
   -1.6390   20.4310   -8.0830 O   0  0  0  0  0  0  0  0  0  0  0  0
   -0.2830   19.6540   -7.8090 P   0  0  0  0  0  0  0  0  0  0  0  0
   -0.3230   19.0600   -6.3620 O   0  0  0  0  0  0  0  0  0  0  0  0
    0.0990   18.6630   -8.8400 O   0  0  0  0  0  0  0  0  0  0  0  0
    0.7670   20.8510   -7.7210 O   0  0  0  0  0  0  0  0  0  0  0  0
   -1.4450   18.1170   -5.7850 P   0  0  1  0  0  0  0  0  0  0  0  0
   -0.7770   16.6810   -5.5920 O   0  0  0  0  0  0  0  0  0  0  0  0
   -2.0760   18.6450   -4.5760 O   0  0  0  0  0  0  0  0  0  0  0  0
   -2.4870   17.8790   -6.9800 O   0  0  0  0  0  0  0  0  0  0  0  0
   -0.7830   16.1170   -4.2910 C   0  0  0  0  0  0  0  0  0  0  0  0
   -2.2000   15.9220   -3.7300 C   0  0  0  0  0  0  0  0  0  0  0  0
   -2.4470   14.6790   -2.8620 C   0  0  1  0  0  0  0  0  0  0  0  0
   -1.2090   14.1980   -2.2970 N   0  0  0  0  0  0  0  0  0  0  0  0
   -3.3700   14.8350   -1.7260 N   0  0  0  0  0  0  0  0  0  0  0  0
   -1.0680   14.8300   -0.9980 C   0  0  1  0  0  0  0  0  0  0  0  0
   -2.4600   15.4180   -0.6850 C   0  0  2  0  0  0  0  0  0  0  0  0
   -0.6340   13.7680   -0.1190 N   0  0  0  0  0  0  0  0  0  0  0  0
   -2.9040   15.2200    0.7970 C   0  0  1  0  0  0  0  0  0  0  0  0
   -4.2600   14.7310    0.9610 N   0  0  0  0  0  0  0  0  0  0  0  0
   -0.6820   14.2750    1.2280 C   0  0  0  0  0  0  0  0  0  0  0  0
   -2.0710   14.3560    1.6170 N   0  0  0  0  0  0  0  0  0  0  0  0
  1  2  1  0
  2  3  1  0
  2  4  2  0
  2  5  1  0
  3  6  1  0
  6  7  1  0
  6  8  2  0
  6  9  1  6
  7 10  1  0
 10 11  1  0
 12 11  1  1
 12 13  1  0
 12 14  1  0
 15 13  1  6
 16 14  1  6
 15 16  1  0
 15 17  1  0
 16 18  1  0
 18 19  1  6
 17 20  1  0
 18 21  1  0
 20 21  1  0
M  END
>  <%Rank>  (15) 
1.068702

>  <N_hits>  (15) 
2

>  <submitter_name>  (15) 
nan

>  <original SMILES>  (15) 
nan

>  <∆G_unbound>  (15) 
4.513202

>  <∆G_bound>  (15) 
-10.526899

>  <regarded>  (15) 
mArh-3q6z_0_A_β,mArh-2fav_B_0_B_δ

>  <ref_pdb>  (15) 
nan

>  <smiles>  (15) 
NC1NCNC2NC(CCOP(=O)(O)OP(=O)(O)O)NC12

>  <submitter_email>  (15) 
nan

>  <disregarded>  (15) 


>  <LE>  (15) 
-0.716195

>  <submitter_institution>  (15) 
nan

>  <ref_mols>  (15) 
mArh-3q6z_0_A,mArh-2fav_B_0_B

>  <N_constrained_atoms>  (15) 
19.0

>  <ref_url>  (15) 
nan

>  <method>  (15) 
nan

>  <comRMSD>  (15) 
0.414691

>  <N_unconstrained_atoms>  (15) 
2.0

>  <∆∆G>  (15) 
-15.040101

>  <runtime>  (15) 
30.742099

>  <generation_date>  (15) 
nan

$$$$
mArh-x0837_0_A_α-mArh-1hjz_A_0_A_α
     RDKit          3D

 25 26  0  0  0  0  0  0  0  0999 V2000
   -7.4610   14.5820    0.1750 O   0  0  0  0  0  0  0  0  0  0  0  0
   -6.2410   14.8240    0.1800 C   0  0  0  0  0  0  0  0  0  0  0  0
   -5.5080   14.8890    1.4370 N   0  0  0  0  0  0  0  0  0  0  0  0
   -5.4380   15.0800   -1.0770 C   0  0  0  0  0  0  0  0  0  0  0  0
   -4.2160   15.4450    1.3720 C   0  0  0  0  0  0  0  0  0  0  0  0
   -4.0200   14.6730   -0.8640 C   0  0  1  0  0  0  0  0  0  0  0  0
   -2.8610   15.2370   -2.5710 I   0  0  0  0  0  0  0  0  0  0  0  0
   -3.4830   15.3570    0.2980 C   0  0  0  0  0  0  0  0  0  0  0  0
   -0.8280   15.5780   -2.1020 C   0  0  0  0  0  0  0  0  0  0  0  0
    0.0540   15.6380   -3.3380 C   0  0  0  0  0  0  0  0  0  0  0  0
    0.3400   17.0620   -3.7130 C   0  0  0  0  0  0  0  0  0  0  0  0
   -0.5180   17.5900   -4.8180 C   0  0  0  0  0  0  0  0  0  0  0  0
    0.2480   18.3370   -5.8660 C   0  0  0  0  0  0  0  0  0  0  0  0
   -0.5070   19.4300   -6.2480 O   0  0  0  0  0  0  0  0  0  0  0  0
   -0.1630   20.0470   -7.7480 S   0  0  0  0  0  0  0  0  0  0  0  0
    1.0860   20.8760   -7.6650 O   0  0  0  0  0  0  0  0  0  0  0  0
    0.1120   18.8840   -8.6850 O   0  0  0  0  0  0  0  0  0  0  0  0
   -1.4570   21.1250   -8.3250 C   0  0  0  0  0  0  0  0  0  0  0  0
   -2.1680   21.7890   -7.1890 C   0  0  0  0  0  0  0  0  0  0  0  0
   -3.4770   22.2740   -7.5400 N   0  0  0  0  0  0  0  0  0  0  0  0
   -3.5320   22.7630   -8.9020 C   0  0  0  0  0  0  0  0  0  0  0  0
   -3.8250   23.3910   -6.7280 C   0  0  0  0  0  0  0  0  0  0  0  0
   -4.9790   23.0460   -9.2460 C   0  0  0  0  0  0  0  0  0  0  0  0
   -5.2360   23.8180   -7.1140 C   0  0  0  0  0  0  0  0  0  0  0  0
   -5.3480   24.1230   -8.4410 O   0  0  0  0  0  0  0  0  0  0  0  0
  1  2  2  0
  2  3  1  0
  2  4  1  0
  3  5  1  0
  4  6  1  0
  6  7  1  6
  5  8  2  0
  6  8  1  0
  7  9  1  0
  9 10  1  0
 10 11  1  0
 11 12  1  0
 12 13  1  0
 13 14  1  0
 15 14  1  0
 15 16  2  0
 15 17  2  0
 15 18  1  0
 18 19  1  0
 19 20  1  0
 20 21  1  0
 20 22  1  0
 21 23  1  0
 22 24  1  0
 23 25  1  0
 24 25  1  0
M  END
>  <%Rank>  (16) 
1.145038

>  <N_hits>  (16) 
2

>  <submitter_name>  (16) 
nan

>  <original SMILES>  (16) 
nan

>  <∆G_unbound>  (16) 
1.037983

>  <∆G_bound>  (16) 
-15.466322

>  <regarded>  (16) 
mArh-x0837_0_A_α,mArh-1hjz_A_0_A_α

>  <ref_pdb>  (16) 
nan

>  <smiles>  (16) 
O=C1CC(ICCCCCOS(=O)(=O)CCN2CCOCC2)C=CN1

>  <submitter_email>  (16) 
nan

>  <disregarded>  (16) 


>  <LE>  (16) 
-0.660172

>  <submitter_institution>  (16) 
nan

>  <ref_mols>  (16) 
mArh-x0837_0_A,mArh-1hjz_A_0_A

>  <N_constrained_atoms>  (16) 
20.0

>  <ref_url>  (16) 
nan

>  <method>  (16) 
nan

>  <comRMSD>  (16) 
0.333566

>  <N_unconstrained_atoms>  (16) 
5.0

>  <∆∆G>  (16) 
-16.504305

>  <runtime>  (16) 
53.096214

>  <generation_date>  (16) 
nan

$$$$
mArh-5cb5_N_0_N_γ-mArh-1hjz_A_0_A_α
     RDKit          3D

 21 22  0  0  0  0  0  0  0  0999 V2000
   -0.8640   12.8770   -4.1560 O   0  0  0  0  0  0  0  0  0  0  0  0
   -0.8510   14.3080   -4.3070 C   0  0  1  0  0  0  0  0  0  0  0  0
   -0.5580   14.9920   -2.9950 C   0  0  0  0  0  0  0  0  0  0  0  0
    0.3630   14.7310   -5.1280 C   0  0  2  0  0  0  0  0  0  0  0  0
    1.3860   13.7490   -5.0750 O   0  0  0  0  0  0  0  0  0  0  0  0
   -0.0620   16.2800   -3.3890 O   0  0  0  0  0  0  0  0  0  0  0  0
    0.7980   16.0780   -4.5130 C   0  0  2  0  0  0  0  0  0  0  0  0
    0.8330   17.3180   -5.4470 C   0  0  0  0  0  0  0  0  0  0  0  0
   -0.4900   17.9700   -5.8690 C   0  0  0  0  0  0  0  0  0  0  0  0
   -0.2310   19.3380   -6.2070 O   0  0  0  0  0  0  0  0  0  0  0  0
   -0.0180   19.8740   -7.7400 S   0  0  0  0  0  0  0  0  0  0  0  0
    0.9080   20.9930   -7.6920 O   0  0  0  0  0  0  0  0  0  0  0  0
    0.2040   18.7500   -8.6390 O   0  0  0  0  0  0  0  0  0  0  0  0
   -1.6430   20.5100   -8.0560 C   0  0  0  0  0  0  0  0  0  0  0  0
   -1.9780   21.7990   -7.3450 C   0  0  0  0  0  0  0  0  0  0  0  0
   -3.3710   22.2210   -7.5930 N   0  0  0  0  0  0  0  0  0  0  0  0
   -3.5840   22.6450   -8.9840 C   0  0  0  0  0  0  0  0  0  0  0  0
   -3.7970   23.3580   -6.7480 C   0  0  0  0  0  0  0  0  0  0  0  0
   -5.0130   23.0910   -9.2900 C   0  0  0  0  0  0  0  0  0  0  0  0
   -5.2210   23.8180   -7.0590 C   0  0  0  0  0  0  0  0  0  0  0  0
   -5.3810   24.1760   -8.4360 O   0  0  0  0  0  0  0  0  0  0  0  0
  2  1  1  1
  2  3  1  0
  2  4  1  0
  4  5  1  1
  3  6  1  0
  4  7  1  0
  6  7  1  0
  7  8  1  6
  8  9  1  0
  9 10  1  0
 11 10  1  0
 11 12  2  0
 11 13  2  0
 11 14  1  0
 14 15  1  0
 15 16  1  0
 16 17  1  0
 16 18  1  0
 17 19  1  0
 18 20  1  0
 19 21  1  0
 20 21  1  0
M  END
>  <%Rank>  (17) 
1.221374

>  <N_hits>  (17) 
2

>  <submitter_name>  (17) 
nan

>  <original SMILES>  (17) 
nan

>  <∆G_unbound>  (17) 
0.991816

>  <∆G_bound>  (17) 
-11.027214

>  <regarded>  (17) 
mArh-5cb5_N_0_N_γ,mArh-1hjz_A_0_A_α

>  <ref_pdb>  (17) 
nan

>  <smiles>  (17) 
O=S(=O)(CCN1CCOCC1)OCCC1OCC(O)C1O

>  <submitter_email>  (17) 
nan

>  <disregarded>  (17) 


>  <LE>  (17) 
-0.572335

>  <submitter_institution>  (17) 
nan

>  <ref_mols>  (17) 
mArh-5cb5_N_0_N,mArh-1hjz_A_0_A

>  <N_constrained_atoms>  (17) 
20.0

>  <ref_url>  (17) 
nan

>  <method>  (17) 
nan

>  <comRMSD>  (17) 
0.396377

>  <N_unconstrained_atoms>  (17) 
1.0

>  <∆∆G>  (17) 
-12.01903

>  <runtime>  (17) 
40.758991

>  <generation_date>  (17) 
nan

$$$$
1HJZ_0_A_α-mArh-x0969_0_A_α
     RDKit          3D

 27 29  0  0  0  0  0  0  0  0999 V2000
    1.2680   20.9460   -7.5050 O   0  0  0  0  0  0  0  0  0  0  0  0
   -0.0290   19.9980   -7.6390 S   0  0  0  0  0  0  0  0  0  0  0  0
    0.2000   18.8050   -8.6950 O   0  0  0  0  0  0  0  0  0  0  0  0
   -0.5840   19.4360   -6.2350 O   0  0  0  0  0  0  0  0  0  0  0  0
   -1.2930   21.0700   -8.2860 C   0  0  0  0  0  0  0  0  0  0  0  0
   -2.0520   21.7830   -7.1910 C   0  0  0  0  0  0  0  0  0  0  0  0
   -0.2210   18.1350   -5.7680 C   0  0  0  0  0  0  0  0  0  0  0  0
   -1.5070   17.3910   -5.3950 C   0  0  0  0  0  0  0  0  0  0  0  0
   -3.4490   22.1390   -7.4950 N   0  0  0  0  0  0  0  0  0  0  0  0
   -1.2900   16.0830   -4.6280 C   0  0  0  0  0  0  0  0  0  0  0  0
   -3.5810   22.6130   -8.8780 C   0  0  0  0  0  0  0  0  0  0  0  0
   -3.8680   23.2930   -6.6750 C   0  0  0  0  0  0  0  0  0  0  0  0
   -2.5080   15.5210   -3.8580 C   0  0  0  0  0  0  0  0  0  0  0  0
   -4.9860   23.0880   -9.2520 C   0  0  0  0  0  0  0  0  0  0  0  0
   -5.2580   23.8120   -7.0300 C   0  0  0  0  0  0  0  0  0  0  0  0
   -2.2110   14.8380   -2.5040 C   0  0  0  0  0  0  0  0  0  0  0  0
   -5.3680   24.1770   -8.4110 O   0  0  0  0  0  0  0  0  0  0  0  0
   -3.3330   14.8810   -1.4720 C   0  0  0  0  0  0  0  0  0  0  0  0
   -4.6230   14.8240   -1.8570 C   0  0  0  0  0  0  0  0  0  0  0  0
   -3.0010   14.9640   -0.0370 C   0  0  0  0  0  0  0  0  0  0  0  0
   -5.6660   14.8000   -0.8940 C   0  0  0  0  0  0  0  0  0  0  0  0
   -3.9930   14.9510    0.8800 C   0  0  0  0  0  0  0  0  0  0  0  0
   -6.9700   14.7170   -1.0160 N   0  0  0  0  0  0  0  0  0  0  0  0
   -5.3180   14.8530    0.4460 N   0  0  0  0  0  0  0  0  0  0  0  0
   -6.5390   14.7860    1.1210 C   0  0  0  0  0  0  0  0  0  0  0  0
   -7.5130   14.7060    0.2450 N   0  0  0  0  0  0  0  0  0  0  0  0
   -6.6960   14.8080    2.4610 N   0  0  0  0  0  0  0  0  0  0  0  0
  2  1  1  0
  2  3  1  0
  2  4  1  0
  2  5  1  0
  5  6  1  0
  4  7  1  0
  7  8  1  0
  6  9  1  0
  8 10  1  0
  9 11  1  0
  9 12  1  0
 10 13  1  0
 11 14  1  0
 12 15  1  0
 13 16  1  0
 14 17  1  0
 15 17  1  0
 16 18  1  0
 18 19  2  0
 18 20  1  0
 19 21  1  0
 20 22  2  0
 21 23  2  0
 21 24  1  0
 22 24  1  0
 24 25  1  0
 23 26  1  0
 25 26  2  0
 25 27  1  0
M  END
>  <%Rank>  (18) 
1.29771

>  <N_hits>  (18) 
2

>  <submitter_name>  (18) 
nan

>  <original SMILES>  (18) 
nan

>  <∆G_unbound>  (18) 
0.073481

>  <∆G_bound>  (18) 
-14.364585

>  <regarded>  (18) 
1HJZ_0_A_α,mArh-x0969_0_A_α

>  <ref_pdb>  (18) 
nan

>  <smiles>  (18) 
Nc1nnc2cc(CCCCCOS(O)(O)CCN3CCOCC3)ccn12

>  <submitter_email>  (18) 
nan

>  <disregarded>  (18) 


>  <LE>  (18) 
-0.534743

>  <submitter_institution>  (18) 
nan

>  <ref_mols>  (18) 
1HJZ_0_A,mArh-x0969_0_A

>  <N_constrained_atoms>  (18) 
22.0

>  <ref_url>  (18) 
nan

>  <method>  (18) 
nan

>  <comRMSD>  (18) 
0.326134

>  <N_unconstrained_atoms>  (18) 
5.0

>  <∆∆G>  (18) 
-14.438066

>  <runtime>  (18) 
60.979356

>  <generation_date>  (18) 
nan

$$$$
mArh-1vhu_0_A_α-mArh-x0950_0_A_α
     RDKit          3D

 23 23  0  0  0  0  0  0  0  0999 V2000
    0.0860   18.8220   -8.6370 O   0  0  0  0  0  0  0  0  0  0  0  0
    0.0190   19.9940   -7.7600 S   0  0  1  0  0  0  0  0  0  0  0  0
   -0.7440   19.5430   -6.3330 N   0  0  0  0  0  0  0  0  0  0  0  0
    1.2420   20.7440   -7.4380 O   0  0  0  0  0  0  0  0  0  0  0  0
   -1.2120   21.1400   -8.3480 C   0  0  0  0  0  0  0  0  0  0  0  0
   -2.0050   21.8960   -7.3010 C   0  0  0  0  0  0  0  0  0  0  0  0
   -0.7210   18.1340   -5.9750 C   0  0  0  0  0  0  0  0  0  0  0  0
    0.6740   17.7440   -5.5320 C   0  0  0  0  0  0  0  0  0  0  0  0
   -3.4060   22.2460   -7.5730 N   0  0  0  0  0  0  0  0  0  0  0  0
    0.6960   16.7190   -4.4040 C   0  0  0  0  0  0  0  0  0  0  0  0
   -3.6410   22.6640   -8.9600 C   0  0  0  0  0  0  0  0  0  0  0  0
   -3.8130   23.3640   -6.6980 C   0  0  0  0  0  0  0  0  0  0  0  0
    1.2950   15.3920   -4.8280 C   0  0  0  0  0  0  0  0  0  0  0  0
   -5.0920   23.0830   -9.2220 C   0  0  0  0  0  0  0  0  0  0  0  0
   -5.2410   23.8210   -6.9700 C   0  0  0  0  0  0  0  0  0  0  0  0
    0.5230   14.1490   -4.4030 C   0  0  0  0  0  0  0  0  0  0  0  0
   -5.4880   24.1410   -8.3470 O   0  0  0  0  0  0  0  0  0  0  0  0
    1.2790   12.8190   -4.2530 C   0  0  2  0  0  0  0  0  0  0  0  0
    2.7970   12.9550   -4.1610 C   0  0  0  0  0  0  0  0  0  0  0  0
    1.0000   12.0650   -5.4470 O   0  0  0  0  0  0  0  0  0  0  0  0
    0.7670   12.0760   -3.0120 C   0  0  0  0  0  0  0  0  0  0  0  0
    0.1850   11.0050   -2.9560 O   0  0  0  0  0  0  0  0  0  0  0  0
    1.0260   12.7880   -1.8890 O   0  0  0  0  0  0  0  0  0  0  0  0
  1  2  2  0
  2  3  2  0
  2  4  1  1
  2  5  1  0
  5  6  1  0
  3  7  1  0
  7  8  1  0
  6  9  1  0
  8 10  1  0
  9 11  1  0
  9 12  1  0
 10 13  1  0
 11 14  1  0
 12 15  1  0
 13 16  1  0
 14 17  1  0
 15 17  1  0
 16 18  1  0
 18 19  1  1
 18 20  1  0
 18 21  1  0
 21 22  2  0
 21 23  1  0
M  CHG  1   4  -1
M  END
>  <%Rank>  (19) 
1.374046

>  <N_hits>  (19) 
2

>  <submitter_name>  (19) 
nan

>  <original SMILES>  (19) 
nan

>  <∆G_unbound>  (19) 
0.985456

>  <∆G_bound>  (19) 
-16.588627

>  <regarded>  (19) 
mArh-1vhu_0_A_α,mArh-x0950_0_A_α

>  <ref_pdb>  (19) 
nan

>  <smiles>  (19) 
C[C@](O)(CCCCCN=S(=O)([O-])CCN1CCOCC1)C(=O)O

>  <submitter_email>  (19) 
nan

>  <disregarded>  (19) 


>  <LE>  (19) 
-0.764091

>  <submitter_institution>  (19) 
nan

>  <ref_mols>  (19) 
mArh-1vhu_0_A,mArh-x0950_0_A

>  <N_constrained_atoms>  (19) 
18.0

>  <ref_url>  (19) 
nan

>  <method>  (19) 
nan

>  <comRMSD>  (19) 
0.343912

>  <N_unconstrained_atoms>  (19) 
5.0

>  <∆∆G>  (19) 
-17.574082

>  <runtime>  (19) 
39.534878

>  <generation_date>  (19) 
nan

$$$$
mArh-5cms_P_15_P_β-mArh-x1015_0_A_α
     RDKit          3D

 26 27  0  0  0  0  0  0  0  0999 V2000
   -1.0810   20.7670   -8.7080 O   0  0  0  0  0  0  0  0  0  0  0  0
   -0.2800   19.7610   -7.7920 P   0  0  0  0  0  0  0  0  0  0  0  0
   -1.3670   19.4630   -6.7050 O   0  0  0  0  0  0  0  0  0  0  0  0
    1.0380   20.2500   -7.3470 O   0  0  0  0  0  0  0  0  0  0  0  0
   -0.2020   18.4670   -8.7150 O   0  0  0  0  0  0  0  0  0  0  0  0
   -1.6930   18.0640   -6.1060 P   0  0  2  0  0  0  0  0  0  0  0  0
   -0.3590   17.1950   -6.1180 O   0  0  0  0  0  0  0  0  0  0  0  0
   -2.8590   17.3940   -6.7330 O   0  0  0  0  0  0  0  0  0  0  0  0
   -1.8730   18.3650   -4.5550 O   0  0  0  0  0  0  0  0  0  0  0  0
    0.1570   16.6990   -4.9000 C   0  0  0  0  0  0  0  0  0  0  0  0
   -0.9630   16.0320   -4.0870 C   0  0  0  0  0  0  0  0  0  0  0  0
   -1.1010   14.5190   -4.2970 C   0  0  0  0  0  0  0  0  0  0  0  0
    0.1410   13.6620   -3.9850 C   0  0  2  0  0  0  0  0  0  0  0  0
   -0.1360   12.2240   -3.9120 N   0  0  0  0  0  0  0  0  0  0  0  0
    0.4950   13.9060   -2.5150 C   0  0  0  0  0  0  0  0  0  0  0  0
    0.5600   14.9910   -1.9480 O   0  0  0  0  0  0  0  0  0  0  0  0
    0.2760   11.6950   -2.6790 C   0  0  0  0  0  0  0  0  0  0  0  0
    0.7370   12.7190   -1.9150 N   0  0  0  0  0  0  0  0  0  0  0  0
   -0.5150   11.4340   -5.0270 C   0  0  0  0  0  0  0  0  0  0  0  0
    0.2550   10.5240   -2.2890 O   0  0  0  0  0  0  0  0  0  0  0  0
    0.0530   11.6420   -6.2910 C   0  0  0  0  0  0  0  0  0  0  0  0
   -1.4700   10.4170   -4.8940 C   0  0  0  0  0  0  0  0  0  0  0  0
   -0.3230   10.8580   -7.3890 C   0  0  0  0  0  0  0  0  0  0  0  0
   -1.8490    9.6290   -5.9870 C   0  0  0  0  0  0  0  0  0  0  0  0
   -1.2730    9.8550   -7.2290 C   0  0  0  0  0  0  0  0  0  0  0  0
   -1.7390    8.8880   -8.5720 Cl  0  0  0  0  0  0  0  0  0  0  0  0
  1  2  1  0
  2  3  1  0
  2  4  2  0
  2  5  1  0
  3  6  1  0
  6  7  1  0
  6  8  2  0
  6  9  1  1
  7 10  1  0
 10 11  1  0
 11 12  1  0
 13 12  1  1
 13 14  1  0
 13 15  1  0
 15 16  2  0
 14 17  1  0
 15 18  1  0
 17 18  1  0
 14 19  1  0
 17 20  2  0
 19 21  2  0
 19 22  1  0
 21 23  1  0
 22 24  2  0
 23 25  2  0
 24 25  1  0
 25 26  1  0
M  END
>  <%Rank>  (20) 
1.450382

>  <N_hits>  (20) 
2

>  <submitter_name>  (20) 
nan

>  <original SMILES>  (20) 
nan

>  <∆G_unbound>  (20) 
2.478588

>  <∆G_bound>  (20) 
-11.134218

>  <regarded>  (20) 
mArh-5cms_P_15_P_β,mArh-x1015_0_A_α

>  <ref_pdb>  (20) 
nan

>  <smiles>  (20) 
O=C1NC(=O)N(c2ccc(Cl)cc2)C1CCCOP(=O)(O)OP(=O)(O)O

>  <submitter_email>  (20) 
nan

>  <disregarded>  (20) 


>  <LE>  (20) 
-0.523569

>  <submitter_institution>  (20) 
nan

>  <ref_mols>  (20) 
mArh-5cms_P_15_P,mArh-x1015_0_A

>  <N_constrained_atoms>  (20) 
24.0

>  <ref_url>  (20) 
nan

>  <method>  (20) 
nan

>  <comRMSD>  (20) 
0.42871

>  <N_unconstrained_atoms>  (20) 
2.0

>  <∆∆G>  (20) 
-13.612807

>  <runtime>  (20) 
52.737226

>  <generation_date>  (20) 
nan

$$$$
mArh-5cms_B_1_B_γ-mArh-x0421_0_A_α
     RDKit          3D

 19 21  0  0  0  0  0  0  0  0999 V2000
   -0.4990   12.2620   -3.9610 O   0  0  0  0  0  0  0  0  0  0  0  0
   -0.9110   13.6470   -3.9450 C   0  0  1  0  0  0  0  0  0  0  0  0
   -0.3720   14.3640   -2.7010 C   0  0  2  0  0  0  0  0  0  0  0  0
   -0.2150   14.3290   -5.1080 C   0  0  2  0  0  0  0  0  0  0  0  0
    0.7080   13.4400   -5.7380 O   0  0  0  0  0  0  0  0  0  0  0  0
   -1.3550   14.4740   -1.6440 N   0  0  0  0  0  0  0  0  0  0  0  0
    0.1110   15.6430   -3.1390 O   0  0  0  0  0  0  0  0  0  0  0  0
    0.4810   15.5580   -4.5160 C   0  0  2  0  0  0  0  0  0  0  0  0
    0.1020   16.8690   -5.1870 C   0  0  0  0  0  0  0  0  0  0  0  0
   -2.6170   14.7670   -1.6390 C   0  0  0  0  0  0  0  0  0  0  0  0
   -3.3510   15.0630   -2.7590 N   0  0  0  0  0  0  0  0  0  0  0  0
   -3.3960   14.8160   -0.4020 C   0  0  0  0  0  0  0  0  0  0  0  0
   -2.9000   15.0020    0.8690 C   0  0  0  0  0  0  0  0  0  0  0  0
   -4.7880   14.6650   -0.3440 N   0  0  0  0  0  0  0  0  0  0  0  0
   -3.9710   14.9610    1.6990 N   0  0  0  0  0  0  0  0  0  0  0  0
   -5.0780   14.7560    0.9440 C   0  0  0  0  0  0  0  0  0  0  0  0
   -6.4860   14.6440    1.5760 C   0  0  0  0  0  0  0  0  0  0  0  0
   -7.7150   14.6820    0.7080 C   0  0  0  0  0  0  0  0  0  0  0  0
   -7.2820   13.3920    1.3450 C   0  0  0  0  0  0  0  0  0  0  0  0
  2  1  1  1
  2  3  1  0
  2  4  1  0
  4  5  1  1
  3  6  1  1
  3  7  1  0
  4  8  1  0
  7  8  1  0
  8  9  1  6
  6 10  2  3
 10 11  1  0
 10 12  1  0
 12 13  2  0
 12 14  1  0
 13 15  1  0
 14 16  2  0
 15 16  1  0
 16 17  1  0
 17 18  1  0
 17 19  1  0
 18 19  1  0
M  END
>  <%Rank>  (21) 
1.526718

>  <N_hits>  (21) 
2

>  <submitter_name>  (21) 
nan

>  <original SMILES>  (21) 
nan

>  <∆G_unbound>  (21) 
0.371731

>  <∆G_bound>  (21) 
-5.958011

>  <regarded>  (21) 
mArh-5cms_B_1_B_γ,mArh-x0421_0_A_α

>  <ref_pdb>  (21) 
nan

>  <smiles>  (21) 
CC1OC(N=C(N)c2c[nH]c(C3CC3)n2)C(O)C1O

>  <submitter_email>  (21) 
nan

>  <disregarded>  (21) 


>  <LE>  (21) 
-0.333144

>  <submitter_institution>  (21) 
nan

>  <ref_mols>  (21) 
mArh-5cms_B_1_B,mArh-x0421_0_A

>  <N_constrained_atoms>  (21) 
19.0

>  <ref_url>  (21) 
nan

>  <method>  (21) 
nan

>  <comRMSD>  (21) 
0.288067

>  <N_unconstrained_atoms>  (21) 
0.0

>  <∆∆G>  (21) 
-6.329742

>  <runtime>  (21) 
31.906355

>  <generation_date>  (21) 
nan

$$$$
mArh-x0844_0_A_α-1HJZ_0_A_α
     RDKit          3D

 25 26  0  0  0  0  0  0  0  0999 V2000
   -7.5030   14.7290   -0.0990 O   0  0  0  0  0  0  0  0  0  0  0  0
   -6.2730   14.8420   -0.1200 C   0  0  0  0  0  0  0  0  0  0  0  0
   -5.5440   14.7870    1.0430 N   0  0  0  0  0  0  0  0  0  0  0  0
   -5.5030   15.0580   -1.4040 C   0  0  0  0  0  0  0  0  0  0  0  0
   -4.2730   15.2590    1.1620 C   0  0  0  0  0  0  0  0  0  0  0  0
   -3.9820   14.9110   -1.2610 C   0  0  1  0  0  0  0  0  0  0  0  0
   -3.3270   15.6890   -2.2820 O   0  0  0  0  0  0  0  0  0  0  0  0
   -3.4870   15.3380    0.0850 C   0  0  0  0  0  0  0  0  0  0  0  0
   -1.9050   15.5820   -2.3730 C   0  0  0  0  0  0  0  0  0  0  0  0
   -1.3970   16.2510   -3.6630 C   0  0  0  0  0  0  0  0  0  0  0  0
    0.0410   16.7960   -3.6100 C   0  0  0  0  0  0  0  0  0  0  0  0
    0.6110   17.5010   -4.8550 C   0  0  0  0  0  0  0  0  0  0  0  0
   -0.4210   17.9900   -5.8750 C   0  0  0  0  0  0  0  0  0  0  0  0
   -0.2630   19.3780   -6.1240 O   0  0  0  0  0  0  0  0  0  0  0  0
   -0.0330   19.9370   -7.6160 S   0  0  0  0  0  0  0  0  0  0  0  0
    1.1330   21.0510   -7.6460 O   0  0  0  0  0  0  0  0  0  0  0  0
    0.2620   18.7750   -8.6830 O   0  0  0  0  0  0  0  0  0  0  0  0
   -1.5760   20.6710   -8.1220 C   0  0  0  0  0  0  0  0  0  0  0  0
   -1.9860   21.8790   -7.3140 C   0  0  0  0  0  0  0  0  0  0  0  0
   -3.3930   22.2620   -7.5400 N   0  0  0  0  0  0  0  0  0  0  0  0
   -3.6210   22.7060   -8.9130 C   0  0  0  0  0  0  0  0  0  0  0  0
   -3.7960   23.3980   -6.6930 C   0  0  0  0  0  0  0  0  0  0  0  0
   -5.0640   23.1100   -9.2020 C   0  0  0  0  0  0  0  0  0  0  0  0
   -5.2190   23.8800   -6.9860 C   0  0  0  0  0  0  0  0  0  0  0  0
   -5.4180   24.2110   -8.3670 O   0  0  0  0  0  0  0  0  0  0  0  0
  1  2  2  0
  2  3  1  0
  2  4  1  0
  3  5  1  0
  4  6  1  0
  6  7  1  6
  5  8  2  0
  6  8  1  0
  7  9  1  0
  9 10  1  0
 10 11  1  0
 11 12  1  0
 12 13  1  0
 13 14  1  0
 15 14  1  0
 15 16  1  0
 15 17  1  0
 15 18  1  0
 18 19  1  0
 19 20  1  0
 20 21  1  0
 20 22  1  0
 21 23  1  0
 22 24  1  0
 23 25  1  0
 24 25  1  0
M  END
>  <%Rank>  (22) 
1.603053

>  <N_hits>  (22) 
2

>  <submitter_name>  (22) 
nan

>  <original SMILES>  (22) 
nan

>  <∆G_unbound>  (22) 
2.742511

>  <∆G_bound>  (22) 
-14.406118

>  <regarded>  (22) 
mArh-x0844_0_A_α,1HJZ_0_A_α

>  <ref_pdb>  (22) 
nan

>  <smiles>  (22) 
O=C1CC(OCCCCCOS(O)(O)CCN2CCOCC2)C=CN1

>  <submitter_email>  (22) 
nan

>  <disregarded>  (22) 


>  <LE>  (22) 
-0.685945

>  <submitter_institution>  (22) 
nan

>  <ref_mols>  (22) 
mArh-x0844_0_A,1HJZ_0_A

>  <N_constrained_atoms>  (22) 
20.0

>  <ref_url>  (22) 
nan

>  <method>  (22) 
nan

>  <comRMSD>  (22) 
0.362894

>  <N_unconstrained_atoms>  (22) 
5.0

>  <∆∆G>  (22) 
-17.148629

>  <runtime>  (22) 
46.226859

>  <generation_date>  (22) 
nan

$$$$
mArh-5cb5_L_0_L_γ-mArh-x0421_0_A_α
     RDKit          3D

 19 21  0  0  0  0  0  0  0  0999 V2000
   -0.5390   12.5020   -3.9770 O   0  0  0  0  0  0  0  0  0  0  0  0
   -0.7460   13.9120   -4.1910 C   0  0  1  0  0  0  0  0  0  0  0  0
   -0.3940   14.7250   -2.9500 C   0  0  2  0  0  0  0  0  0  0  0  0
    0.3240   14.4130   -5.1640 C   0  0  2  0  0  0  0  0  0  0  0  0
    1.4260   13.5100   -5.2250 O   0  0  0  0  0  0  0  0  0  0  0  0
   -1.3730   14.6870   -1.8740 N   0  0  0  0  0  0  0  0  0  0  0  0
   -0.1550   16.0250   -3.5010 O   0  0  0  0  0  0  0  0  0  0  0  0
    0.7220   15.7900   -4.6030 C   0  0  2  0  0  0  0  0  0  0  0  0
    0.6110   16.9690   -5.5590 C   0  0  0  0  0  0  0  0  0  0  0  0
   -2.6500   14.8780   -1.8350 C   0  0  0  0  0  0  0  0  0  0  0  0
   -3.4190   15.1750   -2.9290 N   0  0  0  0  0  0  0  0  0  0  0  0
   -3.4220   14.8110   -0.5990 C   0  0  0  0  0  0  0  0  0  0  0  0
   -2.9080   14.7470    0.6780 C   0  0  0  0  0  0  0  0  0  0  0  0
   -4.8230   14.7960   -0.5440 N   0  0  0  0  0  0  0  0  0  0  0  0
   -3.9830   14.6870    1.4910 N   0  0  0  0  0  0  0  0  0  0  0  0
   -5.1030   14.7180    0.7410 C   0  0  0  0  0  0  0  0  0  0  0  0
   -6.5040   14.6550    1.4040 C   0  0  0  0  0  0  0  0  0  0  0  0
   -7.7510   14.6790    0.5650 C   0  0  0  0  0  0  0  0  0  0  0  0
   -7.3210   13.4070    1.2380 C   0  0  0  0  0  0  0  0  0  0  0  0
  2  1  1  1
  2  3  1  0
  2  4  1  0
  4  5  1  1
  3  6  1  1
  3  7  1  0
  4  8  1  0
  7  8  1  0
  8  9  1  6
  6 10  2  3
 10 11  1  0
 10 12  1  0
 12 13  2  0
 12 14  1  0
 13 15  1  0
 14 16  2  0
 15 16  1  0
 16 17  1  0
 17 18  1  0
 17 19  1  0
 18 19  1  0
M  END
>  <%Rank>  (23) 
1.679389

>  <N_hits>  (23) 
2

>  <submitter_name>  (23) 
nan

>  <original SMILES>  (23) 
nan

>  <∆G_unbound>  (23) 
0.371731

>  <∆G_bound>  (23) 
-5.902792

>  <regarded>  (23) 
mArh-5cb5_L_0_L_γ,mArh-x0421_0_A_α

>  <ref_pdb>  (23) 
nan

>  <smiles>  (23) 
CC1OC(N=C(N)c2c[nH]c(C3CC3)n2)C(O)C1O

>  <submitter_email>  (23) 
nan

>  <disregarded>  (23) 


>  <LE>  (23) 
-0.330238

>  <submitter_institution>  (23) 
nan

>  <ref_mols>  (23) 
mArh-5cb5_L_0_L,mArh-x0421_0_A

>  <N_constrained_atoms>  (23) 
19.0

>  <ref_url>  (23) 
nan

>  <method>  (23) 
nan

>  <comRMSD>  (23) 
0.290839

>  <N_unconstrained_atoms>  (23) 
0.0

>  <∆∆G>  (23) 
-6.274523

>  <runtime>  (23) 
33.266824

>  <generation_date>  (23) 
nan

$$$$
5CB5_0_P_α-2FAV_0_B_γ
     RDKit          3D

 22 23  0  0  0  0  0  0  0  0999 V2000
   -2.2860   21.4990   -9.0430 C   0  0  0  0  0  0  0  0  0  0  0  0
   -3.3140   22.0090   -8.1060 C   0  0  2  0  0  0  0  0  0  0  0  0
   -4.5790   21.4560   -8.3660 O   0  0  0  0  0  0  0  0  0  0  0  0
   -3.6680   23.4800   -8.0710 C   0  0  1  0  0  0  0  0  0  0  0  0
   -4.3470   23.9350   -9.2610 O   0  0  0  0  0  0  0  0  0  0  0  0
   -5.2170   21.8850   -7.1750 C   0  0  2  0  0  0  0  0  0  0  0  0
   -4.6660   23.3180   -6.9270 C   0  0  2  0  0  0  0  0  0  0  0  0
   -4.8320   21.0340   -6.0810 O   0  0  0  0  0  0  0  0  0  0  0  0
   -5.7070   24.2870   -6.9150 O   0  0  0  0  0  0  0  0  0  0  0  0
   -3.5020   21.3280   -5.6270 C   0  0  0  0  0  0  0  0  0  0  0  0
   -2.4020   20.2400   -5.5160 C   0  0  0  0  0  0  0  0  0  0  0  0
   -2.2850   19.1300   -6.5650 C   0  0  0  0  0  0  0  0  0  0  0  0
   -0.8820   18.4870   -6.5060 C   0  0  0  0  0  0  0  0  0  0  0  0
   -0.6750   17.4620   -5.3660 C   0  0  0  0  0  0  0  0  0  0  0  0
    0.8100   17.1630   -5.0720 C   0  0  0  0  0  0  0  0  0  0  0  0
    1.1240   15.8710   -4.2630 C   0  0  1  0  0  0  0  0  0  0  0  0
    0.2380   15.7870   -3.1150 O   0  0  0  0  0  0  0  0  0  0  0  0
    1.0020   14.5210   -4.9920 C   0  0  1  0  0  0  0  0  0  0  0  0
    2.0470   13.5900   -4.7370 O   0  0  0  0  0  0  0  0  0  0  0  0
   -0.3240   14.4720   -3.0740 C   0  0  0  0  0  0  0  0  0  0  0  0
   -0.3310   13.9820   -4.5050 C   0  0  2  0  0  0  0  0  0  0  0  0
   -0.4000   12.5690   -4.6310 O   0  0  0  0  0  0  0  0  0  0  0  0
  2  1  1  6
  2  3  1  0
  2  4  1  0
  4  5  1  6
  3  6  1  0
  4  7  1  0
  6  7  1  0
  6  8  1  1
  7  9  1  6
  8 10  1  0
 10 11  1  0
 11 12  1  0
 12 13  1  0
 13 14  1  0
 14 15  1  0
 16 15  1  6
 16 17  1  0
 16 18  1  0
 18 19  1  1
 17 20  1  0
 18 21  1  0
 20 21  1  0
 21 22  1  1
M  END
>  <%Rank>  (24) 
1.755725

>  <N_hits>  (24) 
2

>  <submitter_name>  (24) 
nan

>  <original SMILES>  (24) 
nan

>  <∆G_unbound>  (24) 
0.187336

>  <∆G_bound>  (24) 
-11.808791

>  <regarded>  (24) 
5CB5_0_P_α,2FAV_0_B_γ

>  <ref_pdb>  (24) 
nan

>  <smiles>  (24) 
CC1OC(OCCCCCCC2OCC(O)C2O)C(O)C1O

>  <submitter_email>  (24) 
nan

>  <disregarded>  (24) 


>  <LE>  (24) 
-0.545278

>  <submitter_institution>  (24) 
nan

>  <ref_mols>  (24) 
5CB5_0_P,2FAV_0_B

>  <N_constrained_atoms>  (24) 
17.0

>  <ref_url>  (24) 
nan

>  <method>  (24) 
nan

>  <comRMSD>  (24) 
0.224483

>  <N_unconstrained_atoms>  (24) 
5.0

>  <∆∆G>  (24) 
-11.996126

>  <runtime>  (24) 
34.706476

>  <generation_date>  (24) 
nan

$$$$
6YWK_0_E_α-mArh-5cms_K_10_K_γ
     RDKit          3D

 24 25  0  0  0  0  0  0  0  0999 V2000
    1.1550   20.8930   -7.5410 O   0  0  0  0  0  0  0  0  0  0  0  0
    0.0040   19.7710   -7.3970 S   0  0  0  0  0  0  0  0  0  0  0  0
    0.1050   19.0760   -5.9540 O   0  0  0  0  0  0  0  0  0  0  0  0
    0.0730   18.7610   -8.6480 O   0  0  0  0  0  0  0  0  0  0  0  0
   -1.5630   20.6390   -7.3240 C   0  0  0  0  0  0  0  0  0  0  0  0
   -1.7520   21.6990   -8.3890 C   0  0  0  0  0  0  0  0  0  0  0  0
    0.9430   17.9870   -5.6420 C   0  0  0  0  0  0  0  0  0  0  0  0
    0.0840   16.8230   -5.1670 C   0  0  0  0  0  0  0  0  0  0  0  0
   -2.9020   22.6360   -8.3750 N   0  0  0  0  0  0  0  0  0  0  0  0
   -2.9510   23.6370   -7.3180 C   0  0  0  0  0  0  0  0  0  0  0  0
   -4.2060   22.0260   -8.6620 C   0  0  0  0  0  0  0  0  0  0  0  0
    0.7800   15.5950   -4.5580 C   0  0  1  0  0  0  0  0  0  0  0  0
   -4.0060   23.3570   -6.2040 C   0  0  0  0  0  0  0  0  0  0  0  0
   -5.1100   21.8030   -7.4260 C   0  0  0  0  0  0  0  0  0  0  0  0
    0.4450   15.5430   -3.1570 O   0  0  0  0  0  0  0  0  0  0  0  0
    0.3770   14.2280   -5.1240 C   0  0  1  0  0  0  0  0  0  0  0  0
    1.3740   13.2330   -4.8330 O   0  0  0  0  0  0  0  0  0  0  0  0
   -5.3490   22.9900   -6.6910 N   0  0  0  0  0  0  0  0  0  0  0  0
   -0.5780   14.5550   -2.9720 C   0  0  0  0  0  0  0  0  0  0  0  0
   -0.8730   13.9090   -4.3230 C   0  0  2  0  0  0  0  0  0  0  0  0
   -5.6310   24.0250   -7.6560 C   0  0  0  0  0  0  0  0  0  0  0  0
   -1.1100   12.5090   -4.2240 O   0  0  0  0  0  0  0  0  0  0  0  0
   -6.7700   23.8660   -8.6850 C   0  0  0  0  0  0  0  0  0  0  0  0
   -7.0570   22.4970   -8.9770 O   0  0  0  0  0  0  0  0  0  0  0  0
  2  1  1  0
  2  3  1  0
  2  4  1  0
  2  5  1  0
  5  6  1  0
  3  7  1  0
  7  8  1  0
  6  9  1  0
  9 10  1  0
  9 11  1  0
 12  8  1  6
 10 13  1  0
 11 14  1  0
 12 15  1  0
 12 16  1  0
 16 17  1  1
 13 18  1  0
 14 18  1  0
 15 19  1  0
 16 20  1  0
 19 20  1  0
 18 21  1  0
 20 22  1  1
 21 23  1  0
 23 24  1  0
M  END
>  <%Rank>  (25) 
1.832061

>  <N_hits>  (25) 
2

>  <submitter_name>  (25) 
nan

>  <original SMILES>  (25) 
nan

>  <∆G_unbound>  (25) 
1.297727

>  <∆G_bound>  (25) 
-10.210661

>  <regarded>  (25) 
6YWK_0_E_α,mArh-5cms_K_10_K_γ

>  <ref_pdb>  (25) 
nan

>  <smiles>  (25) 
OCCN1CCN(CCS(O)(O)OCCC2OCC(O)C2O)CC1

>  <submitter_email>  (25) 
nan

>  <disregarded>  (25) 


>  <LE>  (25) 
-0.479516

>  <submitter_institution>  (25) 
nan

>  <ref_mols>  (25) 
6YWK_0_E,mArh-5cms_K_10_K

>  <N_constrained_atoms>  (25) 
23.0

>  <ref_url>  (25) 
nan

>  <method>  (25) 
nan

>  <comRMSD>  (25) 
0.444622

>  <N_unconstrained_atoms>  (25) 
1.0

>  <∆∆G>  (25) 
-11.508388

>  <runtime>  (25) 
43.724653

>  <generation_date>  (25) 
nan

$$$$
5CB5_0_E_δ-mArh-x0685_1_A_α
     RDKit          3D

 24 26  0  0  0  0  0  0  0  0999 V2000
   -3.9850   15.5270    2.0490 N   0  0  0  0  0  0  0  0  0  0  0  0
   -2.9100   15.4530    1.0900 C   0  0  2  0  0  0  0  0  0  0  0  0
   -3.2860   14.7540   -0.2210 C   0  0  2  0  0  0  0  0  0  0  0  0
   -1.7610   14.8450    1.6820 N   0  0  0  0  0  0  0  0  0  0  0  0
   -2.0040   14.4000   -1.0170 C   0  0  1  0  0  0  0  0  0  0  0  0
   -4.1220   15.5470   -1.1290 N   0  0  0  0  0  0  0  0  0  0  0  0
   -0.5410   15.0000    0.8900 C   0  0  0  0  0  0  0  0  0  0  0  0
   -2.2970   14.9000   -2.3680 N   0  0  0  0  0  0  0  0  0  0  0  0
   -3.7340   15.0610   -2.4280 C   0  0  0  0  0  0  0  0  0  0  0  0
   -0.6860   14.8010   -0.5390 N   0  0  0  0  0  0  0  0  0  0  0  0
    0.4680   14.1410   -1.1220 C   0  0  0  0  0  0  0  0  0  0  0  0
    0.2160   12.7490   -1.2900 O   0  0  0  0  0  0  0  0  0  0  0  0
    0.6820   12.0210   -2.6440 S   0  0  0  0  0  0  0  0  0  0  0  0
   -0.2000   12.7610   -4.0110 C   0  0  0  0  0  0  0  0  0  0  0  0
    2.2290   12.2870   -2.9760 O   0  0  0  0  0  0  0  0  0  0  0  0
    0.3630   10.4410   -2.5840 O   0  0  0  0  0  0  0  0  0  0  0  0
   -1.3470   11.9230   -4.5800 C   0  0  0  0  0  0  0  0  0  0  0  0
   -1.0790   10.5070   -4.8680 N   0  0  0  0  0  0  0  0  0  0  0  0
   -1.3580   10.0300   -6.2360 C   0  0  0  0  0  0  0  0  0  0  0  0
   -0.6440    8.6900   -6.5020 C   0  0  0  0  0  0  0  0  0  0  0  0
   -1.0140   11.1230   -7.2810 C   0  0  0  0  0  0  0  0  0  0  0  0
    0.1660    8.7220   -7.7890 C   0  0  0  0  0  0  0  0  0  0  0  0
   -1.1960   10.6640   -8.7250 C   0  0  0  0  0  0  0  0  0  0  0  0
   -0.6900    9.2390   -8.9460 C   0  0  0  0  0  0  0  0  0  0  0  0
  2  1  1  1
  2  3  1  0
  2  4  1  0
  3  5  1  0
  3  6  1  6
  4  7  1  0
  5  8  1  6
  6  9  1  0
  8  9  1  0
  5 10  1  0
  7 10  1  0
 10 11  1  0
 11 12  1  0
 13 12  1  0
 13 14  1  0
 13 15  1  0
 13 16  1  0
 14 17  1  0
 17 18  1  0
 18 19  1  0
 19 20  1  0
 19 21  1  0
 20 22  1  0
 21 23  1  0
 22 24  1  0
 23 24  1  0
M  END
>  <%Rank>  (26) 
1.908397

>  <N_hits>  (26) 
2

>  <submitter_name>  (26) 
nan

>  <original SMILES>  (26) 
nan

>  <∆G_unbound>  (26) 
3.923378

>  <∆G_bound>  (26) 
-6.296944

>  <regarded>  (26) 
5CB5_0_E_δ,mArh-x0685_1_A_α

>  <ref_pdb>  (26) 
nan

>  <smiles>  (26) 
NC1NCN(COS(O)(O)CCNC2CCCCC2)C2NCNC12

>  <submitter_email>  (26) 
nan

>  <disregarded>  (26) 


>  <LE>  (26) 
-0.425847

>  <submitter_institution>  (26) 
nan

>  <ref_mols>  (26) 
5CB5_0_E,mArh-x0685_1_A

>  <N_constrained_atoms>  (26) 
23.0

>  <ref_url>  (26) 
nan

>  <method>  (26) 
nan

>  <comRMSD>  (26) 
0.422008

>  <N_unconstrained_atoms>  (26) 
1.0

>  <∆∆G>  (26) 
-10.220323

>  <runtime>  (26) 
36.084127

>  <generation_date>  (26) 
nan

$$$$
6YWK_0_E_α-2BFQ_1_A_α
     RDKit          3D

 17 17  0  0  0  0  0  0  0  0999 V2000
    1.2320   21.0040   -7.6170 O   0  0  0  0  0  0  0  0  0  0  0  0
    0.1220   19.8560   -7.4580 S   0  0  0  0  0  0  0  0  0  0  0  0
    0.4860   18.9770   -6.1750 O   0  0  0  0  0  0  0  0  0  0  0  0
    0.0990   18.8690   -8.7230 O   0  0  0  0  0  0  0  0  0  0  0  0
   -1.4740   20.6460   -7.1600 C   0  0  0  0  0  0  0  0  0  0  0  0
   -1.6040   22.0530   -7.7580 C   0  0  0  0  0  0  0  0  0  0  0  0
   -2.9870   22.3650   -8.2090 N   0  0  0  0  0  0  0  0  0  0  0  0
   -3.6370   23.5840   -7.7630 C   0  0  2  0  0  0  0  0  0  0  0  0
   -3.9060   21.2420   -8.1740 C   0  0  0  0  0  0  0  0  0  0  0  0
   -2.7300   24.5930   -7.6070 O   0  0  0  0  0  0  0  0  0  0  0  0
   -4.4900   23.3840   -6.4790 C   0  0  1  0  0  0  0  0  0  0  0  0
   -5.0840   21.2450   -7.1870 C   0  0  0  0  0  0  0  0  0  0  0  0
   -5.0560   24.5740   -5.9680 O   0  0  0  0  0  0  0  0  0  0  0  0
   -5.5930   22.5590   -6.8680 N   0  0  0  0  0  0  0  0  0  0  0  0
   -6.3080   23.1290   -8.0300 C   0  0  0  0  0  0  0  0  0  0  0  0
   -5.6370   23.3780   -9.3610 C   0  0  0  0  0  0  0  0  0  0  0  0
   -6.6340   23.0500  -10.3290 O   0  0  0  0  0  0  0  0  0  0  0  0
  2  1  1  0
  2  3  1  0
  2  4  1  0
  2  5  1  0
  5  6  1  0
  6  7  1  0
  7  8  1  0
  7  9  1  0
  8 10  1  1
  8 11  1  0
  9 12  1  0
 11 13  1  6
 11 14  1  0
 12 14  1  0
 14 15  1  0
 15 16  1  0
 16 17  1  0
M  END
>  <%Rank>  (27) 
1.984733

>  <N_hits>  (27) 
2

>  <submitter_name>  (27) 
nan

>  <original SMILES>  (27) 
nan

>  <∆G_unbound>  (27) 
1.272229

>  <∆G_bound>  (27) 
-4.393608

>  <regarded>  (27) 
6YWK_0_E_α,2BFQ_1_A_α

>  <ref_pdb>  (27) 
nan

>  <smiles>  (27) 
OCCN1CCN(CCS(O)(O)O)C(O)C1O

>  <submitter_email>  (27) 
nan

>  <disregarded>  (27) 


>  <LE>  (27) 
-0.333285

>  <submitter_institution>  (27) 
nan

>  <ref_mols>  (27) 
6YWK_0_E,2BFQ_1_A

>  <N_constrained_atoms>  (27) 
17.0

>  <ref_url>  (27) 
nan

>  <method>  (27) 
nan

>  <comRMSD>  (27) 
0.290071

>  <N_unconstrained_atoms>  (27) 
0.0

>  <∆∆G>  (27) 
-5.665837

>  <runtime>  (27) 
54.972247

>  <generation_date>  (27) 
nan

$$$$
mArh-EU0844_0_A_α-mArh-5cms_C_2_C_β
     RDKit          3D

 28 29  0  0  0  0  0  0  0  0999 V2000
   -9.7570   14.5120    0.7700 C   0  0  0  0  0  0  0  0  0  0  0  0
   -8.2860   14.6690    1.0080 C   0  0  0  0  0  0  0  0  0  0  0  0
   -7.5030   14.6070   -0.1080 N   0  0  0  0  0  0  0  0  0  0  0  0
   -7.7460   14.8750    2.2750 C   0  0  0  0  0  0  0  0  0  0  0  0
   -8.5430   14.9810    3.5130 C   0  0  0  0  0  0  0  0  0  0  0  0
   -6.1640   14.7600    0.0140 C   0  0  0  0  0  0  0  0  0  0  0  0
   -6.3650   15.0090    2.3920 C   0  0  0  0  0  0  0  0  0  0  0  0
   -9.6000   15.6070    3.4930 O   0  0  0  0  0  0  0  0  0  0  0  0
   -8.0220   14.3800    4.6320 N   0  0  0  0  0  0  0  0  0  0  0  0
   -5.5470   14.9590    1.2600 C   0  0  0  0  0  0  0  0  0  0  0  0
   -5.3560   14.7310   -1.1130 C   0  0  0  0  0  0  0  0  0  0  0  0
   -8.3930   14.8630    5.9370 C   0  0  0  0  0  0  0  0  0  0  0  0
   -3.9650   14.8950   -1.0310 C   0  0  0  0  0  0  0  0  0  0  0  0
   -4.1530   15.1140    1.3560 C   0  0  0  0  0  0  0  0  0  0  0  0
   -3.3150   14.8540   -2.2340 O   0  0  0  0  0  0  0  0  0  0  0  0
   -3.3670   15.0840    0.2110 C   0  0  0  0  0  0  0  0  0  0  0  0
   -1.9020   14.6430   -2.2030 C   0  0  0  0  0  0  0  0  0  0  0  0
   -1.2110   15.6320   -3.1350 C   0  0  0  0  0  0  0  0  0  0  0  0
   -2.0540   15.9870   -4.3550 C   0  0  0  0  0  0  0  0  0  0  0  0
   -1.2090   16.6390   -5.2930 O   0  0  0  0  0  0  0  0  0  0  0  0
   -1.6790   18.0000   -5.9990 P   0  0  0  0  0  0  0  0  0  0  0  0
   -0.3550   18.7130   -6.4840 O   0  0  0  0  0  0  0  0  0  0  0  0
   -2.7470   17.8030   -6.9980 O   0  0  0  0  0  0  0  0  0  0  0  0
   -2.1300   18.9650   -4.8170 O   0  0  0  0  0  0  0  0  0  0  0  0
   -0.2380   19.6410   -7.7510 P   0  0  0  0  0  0  0  0  0  0  0  0
   -1.6930   20.2060   -8.0610 O   0  0  0  0  0  0  0  0  0  0  0  0
    0.7780   20.7150   -7.6870 O   0  0  0  0  0  0  0  0  0  0  0  0
    0.0050   18.6060   -8.9240 O   0  0  0  0  0  0  0  0  0  0  0  0
  1  2  1  0
  2  3  2  0
  2  4  1  0
  4  5  1  0
  3  6  1  0
  4  7  2  0
  5  8  2  0
  5  9  1  0
  6 10  2  0
  7 10  1  0
  6 11  1  0
  9 12  1  0
 11 13  2  0
 10 14  1  0
 13 15  1  0
 13 16  1  0
 14 16  2  0
 15 17  1  0
 17 18  1  0
 18 19  1  0
 19 20  1  0
 20 21  1  0
 21 22  1  0
 21 23  2  0
 21 24  1  0
 22 25  1  0
 25 26  1  0
 25 27  2  0
 25 28  1  0
M  END
>  <%Rank>  (28) 
2.061069

>  <N_hits>  (28) 
2

>  <submitter_name>  (28) 
nan

>  <original SMILES>  (28) 
nan

>  <∆G_unbound>  (28) 
0.350027

>  <∆G_bound>  (28) 
-12.515175

>  <regarded>  (28) 
mArh-EU0844_0_A_α,mArh-5cms_C_2_C_β

>  <ref_pdb>  (28) 
nan

>  <smiles>  (28) 
CNC(=O)c1cc2ccc(OCCCOP(=O)(O)OP(=O)(O)O)cc2nc1C

>  <submitter_email>  (28) 
nan

>  <disregarded>  (28) 


>  <LE>  (28) 
-0.459472

>  <submitter_institution>  (28) 
nan

>  <ref_mols>  (28) 
mArh-EU0844_0_A,mArh-5cms_C_2_C

>  <N_constrained_atoms>  (28) 
25.0

>  <ref_url>  (28) 
nan

>  <method>  (28) 
nan

>  <comRMSD>  (28) 
0.445454

>  <N_unconstrained_atoms>  (28) 
3.0

>  <∆∆G>  (28) 
-12.865202

>  <runtime>  (28) 
63.656331

>  <generation_date>  (28) 
nan

$$$$
mArh-x0676_0_B_α-mArh-x0864_0_A_α
     RDKit          3D

 28 30  0  0  0  0  0  0  0  0999 V2000
    5.7120    6.5830   -9.1320 C   0  0  0  0  0  0  0  0  0  0  0  0
    4.6620    7.1470  -10.0200 C   0  0  0  0  0  0  0  0  0  0  0  0
    4.9140    7.6980  -11.1620 N   0  0  0  0  0  0  0  0  0  0  0  0
    3.2050    7.1240   -9.6530 C   0  0  0  0  0  0  0  0  0  0  0  0
    2.6240    7.9370  -10.7870 C   0  0  0  0  0  0  0  0  0  0  0  0
    3.6950    8.1430  -11.6690 N   0  0  0  0  0  0  0  0  0  0  0  0
    1.3940    8.3340  -10.8820 N   0  0  0  0  0  0  0  0  0  0  0  0
    3.8000    9.1700  -12.6630 C   0  0  0  0  0  0  0  0  0  0  0  0
    0.3140    8.0580   -9.9100 C   0  0  0  0  0  0  0  0  0  0  0  0
    2.8790   10.2420  -12.7170 C   0  0  0  0  0  0  0  0  0  0  0  0
    4.8160    9.1770  -13.6290 C   0  0  0  0  0  0  0  0  0  0  0  0
    0.8200    7.6440   -8.5230 C   0  0  0  0  0  0  0  0  0  0  0  0
    2.9770   11.2600  -13.6790 C   0  0  0  0  0  0  0  0  0  0  0  0
    4.9180   10.1890  -14.5950 C   0  0  0  0  0  0  0  0  0  0  0  0
   -0.3480    7.3440   -7.5560 C   0  0  0  0  0  0  0  0  0  0  0  0
    3.9980   11.2310  -14.6180 C   0  0  0  0  0  0  0  0  0  0  0  0
   -1.3130    8.4160   -7.5070 O   0  0  0  0  0  0  0  0  0  0  0  0
   -0.8880    9.6100   -6.9740 C   0  0  0  0  0  0  0  0  0  0  0  0
   -1.8680   10.3100   -6.1730 C   0  0  0  0  0  0  0  0  0  0  0  0
    0.3240   10.1530   -7.1400 C   0  0  0  0  0  0  0  0  0  0  0  0
   -1.5130   11.4130   -5.4970 C   0  0  0  0  0  0  0  0  0  0  0  0
    0.6740   11.4350   -6.4870 C   0  0  0  0  0  0  0  0  0  0  0  0
    1.7040   12.0130   -6.7820 O   0  0  0  0  0  0  0  0  0  0  0  0
   -0.2160   11.8810   -5.5330 N   0  0  0  0  0  0  0  0  0  0  0  0
    0.2630   12.8740   -4.5520 C   0  0  0  0  0  0  0  0  0  0  0  0
    0.6200   12.3180   -3.1710 C   0  0  0  0  0  0  0  0  0  0  0  0
    0.4410   10.9920   -2.9960 O   0  0  0  0  0  0  0  0  0  0  0  0
    1.0420   13.0240   -2.2670 O   0  0  0  0  0  0  0  0  0  0  0  0
  1  2  1  0
  2  3  2  0
  2  4  1  0
  4  5  1  0
  3  6  1  0
  5  6  1  0
  5  7  2  3
  6  8  1  0
  7  9  1  0
  8 10  2  0
  8 11  1  0
  9 12  1  0
 10 13  1  0
 11 14  2  0
 12 15  1  0
 13 16  2  0
 14 16  1  0
 15 17  1  0
 17 18  1  0
 18 19  1  0
 18 20  2  0
 19 21  2  0
 20 22  1  0
 22 23  2  0
 21 24  1  0
 22 24  1  0
 24 25  1  0
 25 26  1  0
 26 27  1  0
 26 28  2  0
M  END
>  <%Rank>  (29) 
2.137405

>  <N_hits>  (29) 
2

>  <submitter_name>  (29) 
nan

>  <original SMILES>  (29) 
nan

>  <∆G_unbound>  (29) 
1.236177

>  <∆G_bound>  (29) 
-5.059282

>  <regarded>  (29) 
mArh-x0676_0_B_α,mArh-x0864_0_A_α

>  <ref_pdb>  (29) 
nan

>  <smiles>  (29) 
CC1=NN(c2ccccc2)C(=NCCCOc2ccn(CC(=O)O)c(=O)c2)C1

>  <submitter_email>  (29) 
nan

>  <disregarded>  (29) 


>  <LE>  (29) 
-0.224838

>  <submitter_institution>  (29) 
nan

>  <ref_mols>  (29) 
mArh-x0676_0_B,mArh-x0864_0_A

>  <N_constrained_atoms>  (29) 
25.0

>  <ref_url>  (29) 
nan

>  <method>  (29) 
nan

>  <comRMSD>  (29) 
0.329709

>  <N_unconstrained_atoms>  (29) 
3.0

>  <∆∆G>  (29) 
-6.29546

>  <runtime>  (29) 
35.286039

>  <generation_date>  (29) 
nan

$$$$
1VHU_0_A_α-5CB5_0_K_δ
     RDKit          3D

 26 28  0  0  0  0  0  0  0  0999 V2000
    0.1880   18.7830   -8.7140 O   0  0  0  0  0  0  0  0  0  0  0  0
   -0.0680   19.9690   -7.6630 S   0  0  0  0  0  0  0  0  0  0  0  0
   -0.6460   19.3700   -6.2830 O   0  0  0  0  0  0  0  0  0  0  0  0
    1.2380   20.8920   -7.4680 O   0  0  0  0  0  0  0  0  0  0  0  0
   -1.2920   21.0790   -8.3410 C   0  0  0  0  0  0  0  0  0  0  0  0
   -2.0280   21.8820   -7.2990 C   0  0  0  0  0  0  0  0  0  0  0  0
    0.0160   18.2540   -5.6700 C   0  0  0  0  0  0  0  0  0  0  0  0
   -0.9420   17.6440   -4.6510 C   0  0  0  0  0  0  0  0  0  0  0  0
   -3.4050   22.3120   -7.5740 N   0  0  0  0  0  0  0  0  0  0  0  0
   -0.3090   16.6060   -3.7140 C   0  0  0  0  0  0  0  0  0  0  0  0
   -3.6210   22.7170   -8.9650 C   0  0  0  0  0  0  0  0  0  0  0  0
   -3.8100   23.4070   -6.6960 C   0  0  0  0  0  0  0  0  0  0  0  0
   -1.0370   15.2490   -3.5780 C   0  0  0  0  0  0  0  0  0  0  0  0
   -5.0750   23.1300   -9.2240 C   0  0  0  0  0  0  0  0  0  0  0  0
   -5.2330   23.8680   -6.9710 C   0  0  0  0  0  0  0  0  0  0  0  0
   -5.4890   24.1770   -8.3450 O   0  0  0  0  0  0  0  0  0  0  0  0
   -1.8740   14.9050   -2.4160 N   0  0  0  0  0  0  0  0  0  0  0  0
   -1.4930   15.2660   -1.0710 C   0  0  1  0  0  0  0  0  0  0  0  0
   -3.3150   15.1280   -2.5180 C   0  0  0  0  0  0  0  0  0  0  0  0
   -2.7160   14.7920   -0.3130 C   0  0  2  0  0  0  0  0  0  0  0  0
   -3.8250   15.2900   -1.1520 N   0  0  0  0  0  0  0  0  0  0  0  0
   -0.2980   14.6460   -0.5600 N   0  0  0  0  0  0  0  0  0  0  0  0
   -0.2080   14.6580    0.9000 C   0  0  0  0  0  0  0  0  0  0  0  0
   -2.5690   15.4040    1.0600 C   0  0  1  0  0  0  0  0  0  0  0  0
   -3.7170   15.1830    1.9110 N   0  0  0  0  0  0  0  0  0  0  0  0
   -1.4530   14.7460    1.6840 N   0  0  0  0  0  0  0  0  0  0  0  0
  2  1  1  0
  2  3  1  0
  2  4  1  0
  2  5  1  0
  5  6  1  0
  3  7  1  0
  7  8  1  0
  6  9  1  0
  8 10  1  0
  9 11  1  0
  9 12  1  0
 10 13  1  0
 11 14  1  0
 12 15  1  0
 14 16  1  0
 15 16  1  0
 13 17  1  0
 17 18  1  0
 17 19  1  0
 18 20  1  0
 19 21  1  0
 20 21  1  6
 18 22  1  1
 22 23  1  0
 20 24  1  0
 24 25  1  1
 23 26  1  0
 24 26  1  0
M  END
>  <%Rank>  (30) 
2.21374

>  <N_hits>  (30) 
2

>  <submitter_name>  (30) 
nan

>  <original SMILES>  (30) 
nan

>  <∆G_unbound>  (30) 
0.999474

>  <∆G_bound>  (30) 
-11.599975

>  <regarded>  (30) 
1VHU_0_A_α,5CB5_0_K_δ

>  <ref_pdb>  (30) 
nan

>  <smiles>  (30) 
NC1NCNC2C1NCN2CCCCOS(O)(O)CCN1CCOCC1

>  <submitter_email>  (30) 
nan

>  <disregarded>  (30) 


>  <LE>  (30) 
-0.484594

>  <submitter_institution>  (30) 
nan

>  <ref_mols>  (30) 
1VHU_0_A,5CB5_0_K

>  <N_constrained_atoms>  (30) 
22.0

>  <ref_url>  (30) 
nan

>  <method>  (30) 
nan

>  <comRMSD>  (30) 
0.381164

>  <N_unconstrained_atoms>  (30) 
4.0

>  <∆∆G>  (30) 
-12.599448

>  <runtime>  (30) 
42.568108

>  <generation_date>  (30) 
nan

$$$$
mArh-5cb5_P_0_P_γ-mArh-x0290_0_A_α
     RDKit          3D

 20 21  0  0  0  0  0  0  0  0999 V2000
   -0.6080   12.4770   -3.2850 O   0  0  0  0  0  0  0  0  0  0  0  0
   -1.1620   13.6940   -3.7760 C   0  0  1  0  0  0  0  0  0  0  0  0
   -1.2080   14.8710   -2.7550 C   0  0  2  0  0  0  0  0  0  0  0  0
   -0.2770   14.2540   -4.9100 C   0  0  2  0  0  0  0  0  0  0  0  0
    1.0380   13.6810   -4.8340 O   0  0  0  0  0  0  0  0  0  0  0  0
   -0.1730   15.7870   -3.1810 O   0  0  0  0  0  0  0  0  0  0  0  0
   -0.2540   15.7540   -4.6070 C   0  0  1  0  0  0  0  0  0  0  0  0
   -1.3290   14.7390   -1.2150 C   0  0  0  0  0  0  0  0  0  0  0  0
    0.8620   16.5810   -5.2240 C   0  0  0  0  0  0  0  0  0  0  0  0
   -0.2440   14.6400   -0.3250 C   0  0  0  0  0  0  0  0  0  0  0  0
   -2.6140   14.7260   -0.6330 C   0  0  0  0  0  0  0  0  0  0  0  0
   -0.5030   14.5480    1.0460 C   0  0  0  0  0  0  0  0  0  0  0  0
   -2.7940   14.6280    0.7420 C   0  0  0  0  0  0  0  0  0  0  0  0
   -4.0470   14.6170    1.3540 N   0  0  0  0  0  0  0  0  0  0  0  0
   -1.7400   14.5420    1.5970 N   0  0  0  0  0  0  0  0  0  0  0  0
   -5.3090   14.4350    0.8810 C   0  0  0  0  0  0  0  0  0  0  0  0
   -5.4750   14.5190   -0.3430 O   0  0  0  0  0  0  0  0  0  0  0  0
   -6.5120   14.1230    1.7700 C   0  0  0  0  0  0  0  0  0  0  0  0
   -7.7340   13.8170    1.0030 N   0  0  0  0  0  0  0  0  0  0  0  0
   -8.5480   14.9980    0.7370 C   0  0  0  0  0  0  0  0  0  0  0  0
  2  1  1  1
  2  3  1  0
  2  4  1  0
  4  5  1  1
  3  6  1  0
  4  7  1  0
  6  7  1  0
  3  8  1  1
  7  9  1  6
  8 10  2  0
  8 11  1  0
 10 12  1  0
 11 13  2  0
 13 14  1  0
 12 15  2  0
 13 15  1  0
 14 16  1  0
 16 17  2  0
 16 18  1  0
 18 19  1  0
 19 20  1  0
M  END
>  <%Rank>  (31) 
2.290076

>  <N_hits>  (31) 
2

>  <submitter_name>  (31) 
nan

>  <original SMILES>  (31) 
nan

>  <∆G_unbound>  (31) 
1.000854

>  <∆G_bound>  (31) 
-6.522586

>  <regarded>  (31) 
mArh-5cb5_P_0_P_γ,mArh-x0290_0_A_α

>  <ref_pdb>  (31) 
nan

>  <smiles>  (31) 
CNCC(=O)Nc1cc(C2OC(C)C(O)C2O)ccn1

>  <submitter_email>  (31) 
nan

>  <disregarded>  (31) 


>  <LE>  (31) 
-0.376172

>  <submitter_institution>  (31) 
nan

>  <ref_mols>  (31) 
mArh-5cb5_P_0_P,mArh-x0290_0_A

>  <N_constrained_atoms>  (31) 
20.0

>  <ref_url>  (31) 
nan

>  <method>  (31) 
nan

>  <comRMSD>  (31) 
0.383612

>  <N_unconstrained_atoms>  (31) 
0.0

>  <∆∆G>  (31) 
-7.52344

>  <runtime>  (31) 
31.976172

>  <generation_date>  (31) 
nan

$$$$
mArh-5cms_R_17_R_γ-mArh-1spv_0_A_α
     RDKit          3D

 21 22  0  0  0  0  0  0  0  0999 V2000
   -0.0200   12.4120   -3.9470 O   0  0  0  0  0  0  0  0  0  0  0  0
   -0.3420   13.8040   -4.1400 C   0  0  1  0  0  0  0  0  0  0  0  0
   -0.0180   14.6060   -2.8870 C   0  0  0  0  0  0  0  0  0  0  0  0
    0.5920   14.3700   -5.1940 C   0  0  2  0  0  0  0  0  0  0  0  0
    1.7600   13.5720   -5.3140 O   0  0  0  0  0  0  0  0  0  0  0  0
    0.7530   15.7590   -3.2660 O   0  0  0  0  0  0  0  0  0  0  0  0
    0.8860   15.7960   -4.6940 C   0  0  2  0  0  0  0  0  0  0  0  0
   -0.0390   16.8990   -5.2150 C   0  0  0  0  0  0  0  0  0  0  0  0
    0.6910   18.0850   -5.8440 C   0  0  0  0  0  0  0  0  0  0  0  0
   -0.2820   18.9470   -6.4240 O   0  0  0  0  0  0  0  0  0  0  0  0
    0.0050   19.6400   -7.8610 S   0  0  0  0  0  0  0  0  0  0  0  0
    0.9360   20.7300   -7.6900 O   0  0  0  0  0  0  0  0  0  0  0  0
    0.2300   18.5830   -8.8200 O   0  0  0  0  0  0  0  0  0  0  0  0
   -1.5840   20.3150   -8.2010 C   0  0  0  0  0  0  0  0  0  0  0  0
   -1.8750   21.7160   -7.7360 C   0  0  0  0  0  0  0  0  0  0  0  0
   -3.3350   21.9470   -7.7940 N   0  0  0  0  0  0  0  0  0  0  0  0
   -3.7730   22.4180   -9.1250 C   0  0  0  0  0  0  0  0  0  0  0  0
   -3.7840   22.9180   -6.7820 C   0  0  0  0  0  0  0  0  0  0  0  0
   -5.2630   22.7630   -9.2000 C   0  0  0  0  0  0  0  0  0  0  0  0
   -5.2420   23.3780   -6.9370 C   0  0  0  0  0  0  0  0  0  0  0  0
   -5.5500   23.8070   -8.2690 O   0  0  0  0  0  0  0  0  0  0  0  0
  2  1  1  1
  2  3  1  0
  2  4  1  0
  4  5  1  1
  3  6  1  0
  4  7  1  0
  6  7  1  0
  7  8  1  6
  8  9  1  0
  9 10  1  0
 11 10  1  0
 11 12  2  0
 11 13  2  0
 11 14  1  0
 14 15  1  0
 15 16  1  0
 16 17  1  0
 16 18  1  0
 17 19  1  0
 18 20  1  0
 19 21  1  0
 20 21  1  0
M  END
>  <%Rank>  (32) 
2.366412

>  <N_hits>  (32) 
2

>  <submitter_name>  (32) 
nan

>  <original SMILES>  (32) 
nan

>  <∆G_unbound>  (32) 
0.991816

>  <∆G_bound>  (32) 
-11.358208

>  <regarded>  (32) 
mArh-5cms_R_17_R_γ,mArh-1spv_0_A_α

>  <ref_pdb>  (32) 
nan

>  <smiles>  (32) 
O=S(=O)(CCN1CCOCC1)OCCC1OCC(O)C1O

>  <submitter_email>  (32) 
nan

>  <disregarded>  (32) 


>  <LE>  (32) 
-0.588096

>  <submitter_institution>  (32) 
nan

>  <ref_mols>  (32) 
mArh-5cms_R_17_R,mArh-1spv_0_A

>  <N_constrained_atoms>  (32) 
20.0

>  <ref_url>  (32) 
nan

>  <method>  (32) 
nan

>  <comRMSD>  (32) 
0.465438

>  <N_unconstrained_atoms>  (32) 
1.0

>  <∆∆G>  (32) 
-12.350024

>  <runtime>  (32) 
40.045251

>  <generation_date>  (32) 
nan

$$$$
mArh-5l9k_B_0_B_γ-mArh-EU0844_0_A_α
     RDKit          3D

 24 26  0  0  0  0  0  0  0  0999 V2000
   -2.1210   12.2920   -3.8190 O   0  0  0  0  0  0  0  0  0  0  0  0
   -2.1380   13.7010   -4.0210 C   0  0  1  0  0  0  0  0  0  0  0  0
   -1.9880   14.5120   -2.7170 C   0  0  2  0  0  0  0  0  0  0  0  0
   -0.9450   14.1510   -4.8520 C   0  0  2  0  0  0  0  0  0  0  0  0
    0.2310   13.4430   -4.4820 O   0  0  0  0  0  0  0  0  0  0  0  0
   -3.3040   15.0390   -2.4230 O   0  0  0  0  0  0  0  0  0  0  0  0
   -0.9880   15.5230   -3.0380 O   0  0  0  0  0  0  0  0  0  0  0  0
   -0.9570   15.6140   -4.4670 C   0  0  1  0  0  0  0  0  0  0  0  0
    0.2080   16.4470   -4.9750 C   0  0  0  0  0  0  0  0  0  0  0  0
   -3.9130   15.0090   -1.1740 C   0  0  0  0  0  0  0  0  0  0  0  0
   -5.3130   14.8600   -1.2230 C   0  0  0  0  0  0  0  0  0  0  0  0
   -3.3030   15.1180    0.0790 C   0  0  0  0  0  0  0  0  0  0  0  0
   -6.1130   14.8370   -0.0810 C   0  0  0  0  0  0  0  0  0  0  0  0
   -4.0820   15.0980    1.2410 C   0  0  0  0  0  0  0  0  0  0  0  0
   -7.4590   14.7040   -0.1860 N   0  0  0  0  0  0  0  0  0  0  0  0
   -5.4800   14.9680    1.1660 C   0  0  0  0  0  0  0  0  0  0  0  0
   -6.2910   14.9820    2.3120 C   0  0  0  0  0  0  0  0  0  0  0  0
   -8.2310   14.7270    0.9430 C   0  0  0  0  0  0  0  0  0  0  0  0
   -9.7100   14.5970    0.7240 C   0  0  0  0  0  0  0  0  0  0  0  0
   -7.6800   14.8740    2.2090 C   0  0  0  0  0  0  0  0  0  0  0  0
   -8.4870   14.9450    3.4530 C   0  0  0  0  0  0  0  0  0  0  0  0
   -9.5650   15.5360    3.4240 O   0  0  0  0  0  0  0  0  0  0  0  0
   -7.9690   14.3640    4.5820 N   0  0  0  0  0  0  0  0  0  0  0  0
   -8.3740   14.8400    5.8830 C   0  0  0  0  0  0  0  0  0  0  0  0
  2  1  1  1
  2  3  1  0
  2  4  1  0
  4  5  1  1
  3  6  1  6
  3  7  1  0
  4  8  1  0
  7  8  1  0
  8  9  1  1
  6 10  1  0
 10 11  2  0
 10 12  1  0
 11 13  1  0
 12 14  2  0
 13 15  2  0
 13 16  1  0
 14 16  1  0
 16 17  2  0
 15 18  1  0
 18 19  1  0
 17 20  1  0
 18 20  2  0
 20 21  1  0
 21 22  2  0
 21 23  1  0
 23 24  1  0
M  END
>  <%Rank>  (33) 
2.442748

>  <N_hits>  (33) 
2

>  <submitter_name>  (33) 
nan

>  <original SMILES>  (33) 
nan

>  <∆G_unbound>  (33) 
0.259962

>  <∆G_bound>  (33) 
-5.855581

>  <regarded>  (33) 
mArh-5l9k_B_0_B_γ,mArh-EU0844_0_A_α

>  <ref_pdb>  (33) 
nan

>  <smiles>  (33) 
CNC(=O)c1cc2ccc(OC3OC(C)C(O)C3O)cc2nc1C

>  <submitter_email>  (33) 
nan

>  <disregarded>  (33) 


>  <LE>  (33) 
-0.254814

>  <submitter_institution>  (33) 
nan

>  <ref_mols>  (33) 
mArh-5l9k_B_0_B,mArh-EU0844_0_A

>  <N_constrained_atoms>  (33) 
24.0

>  <ref_url>  (33) 
nan

>  <method>  (33) 
nan

>  <comRMSD>  (33) 
0.393656

>  <N_unconstrained_atoms>  (33) 
0.0

>  <∆∆G>  (33) 
-6.115543

>  <runtime>  (33) 
46.644375

>  <generation_date>  (33) 
nan

$$$$
mArh-EU0172_0_A_α-mArh-6woj_B_0_B_β
     RDKit          3D

 22 22  0  0  0  0  0  0  0  0999 V2000
   -7.2470   14.7220    2.4850 C   0  0  0  0  0  0  0  0  0  0  0  0
   -7.8770   14.1400    3.6660 N   0  0  0  0  0  0  0  0  0  0  0  0
   -6.6240   13.6980    1.5240 C   0  0  0  0  0  0  0  0  0  0  0  0
   -5.6050   14.2800    0.6500 N   0  0  0  0  0  0  0  0  0  0  0  0
   -4.3070   14.3340    1.1100 C   0  0  0  0  0  0  0  0  0  0  0  0
   -5.9890   14.9190   -0.5260 C   0  0  0  0  0  0  0  0  0  0  0  0
   -7.1620   15.1420   -0.8300 O   0  0  0  0  0  0  0  0  0  0  0  0
   -3.3290   14.7930    0.3420 C   0  0  0  0  0  0  0  0  0  0  0  0
   -4.8720   15.3200   -1.4380 C   0  0  0  0  0  0  0  0  0  0  0  0
   -3.5910   15.2480   -1.0020 C   0  0  0  0  0  0  0  0  0  0  0  0
   -2.3280   15.5860   -1.7560 C   0  0  0  0  0  0  0  0  0  0  0  0
   -2.4640   15.8520   -3.2610 C   0  0  0  0  0  0  0  0  0  0  0  0
   -1.2390   16.6200   -3.7900 C   0  0  0  0  0  0  0  0  0  0  0  0
   -1.5860   17.9330   -4.3220 N   0  0  0  0  0  0  0  0  0  0  0  0
   -1.1960   18.0970   -5.9130 P   0  0  0  0  0  0  0  0  0  0  0  0
   -0.6890   19.5390   -6.2520 O   0  0  0  0  0  0  0  0  0  0  0  0
   -0.0600   17.0440   -6.1410 O   0  0  0  0  0  0  0  0  0  0  0  0
   -2.4240   17.7600   -6.8420 O   0  0  0  0  0  0  0  0  0  0  0  0
   -0.0880   19.9910   -7.6680 P   0  0  0  0  0  0  0  0  0  0  0  0
   -1.3550   20.6710   -8.3570 O   0  0  0  0  0  0  0  0  0  0  0  0
    1.1300   20.8670   -7.5650 O   0  0  0  0  0  0  0  0  0  0  0  0
    0.0700   18.6430   -8.5440 O   0  0  0  0  0  0  0  0  0  0  0  0
  1  2  1  0
  1  3  1  0
  3  4  1  0
  4  5  1  0
  4  6  1  0
  6  7  2  0
  5  8  2  0
  6  9  1  0
  8 10  1  0
  9 10  2  0
 10 11  1  0
 11 12  1  0
 12 13  1  0
 13 14  1  0
 14 15  2  3
 15 16  1  0
 15 17  1  0
 15 18  1  0
 16 19  1  0
 19 20  1  0
 19 21  2  0
 19 22  1  0
M  END
>  <%Rank>  (34) 
2.519084

>  <N_hits>  (34) 
2

>  <submitter_name>  (34) 
nan

>  <original SMILES>  (34) 
nan

>  <∆G_unbound>  (34) 
1.179659

>  <∆G_bound>  (34) 
-11.324221

>  <regarded>  (34) 
mArh-EU0172_0_A_α,mArh-6woj_B_0_B_β

>  <ref_pdb>  (34) 
nan

>  <smiles>  (34) 
NCCn1ccc(CCCN=P(O)(O)OP(=O)(O)O)cc1=O

>  <submitter_email>  (34) 
nan

>  <disregarded>  (34) 


>  <LE>  (34) 
-0.568358

>  <submitter_institution>  (34) 
nan

>  <ref_mols>  (34) 
mArh-EU0172_0_A,mArh-6woj_B_0_B

>  <N_constrained_atoms>  (34) 
19.0

>  <ref_url>  (34) 
nan

>  <method>  (34) 
nan

>  <comRMSD>  (34) 
0.384209

>  <N_unconstrained_atoms>  (34) 
3.0

>  <∆∆G>  (34) 
-12.50388

>  <runtime>  (34) 
38.060295

>  <generation_date>  (34) 
nan

$$$$
mArh-x0628_0_A_α-mArh-x0849_0_A_α
     RDKit          3D

 25 27  0  0  0  0  0  0  0  0999 V2000
   -0.9280    9.0450   -7.3320 C   0  0  0  0  0  0  0  0  0  0  0  0
   -0.9040   10.2330   -6.4590 C   0  0  0  0  0  0  0  0  0  0  0  0
   -1.8720   10.4820   -5.5250 N   0  0  0  0  0  0  0  0  0  0  0  0
    0.0640   11.1490   -6.5170 N   0  0  0  0  0  0  0  0  0  0  0  0
   -0.3140   12.0180   -5.5610 N   0  0  0  0  0  0  0  0  0  0  0  0
   -1.4880   11.6130   -4.9590 C   0  0  0  0  0  0  0  0  0  0  0  0
   -2.2060   12.3220   -3.8500 C   0  0  0  0  0  0  0  0  0  0  0  0
    0.4870   13.1940   -5.2830 C   0  0  0  0  0  0  0  0  0  0  0  0
    1.6420   12.9630   -4.3160 C   0  0  0  0  0  0  0  0  0  0  0  0
   -2.5430   13.7920   -4.1450 C   0  0  0  0  0  0  0  0  0  0  0  0
    1.1750   12.2130   -3.0980 C   0  0  0  0  0  0  0  0  0  0  0  0
   -3.7200   14.3180   -3.3100 C   0  0  0  0  0  0  0  0  0  0  0  0
    0.4870   11.2030   -3.0990 O   0  0  0  0  0  0  0  0  0  0  0  0
    1.5960   12.7840   -1.9560 O   0  0  0  0  0  0  0  0  0  0  0  0
   -3.2480   15.3620   -2.4550 O   0  0  0  0  0  0  0  0  0  0  0  0
   -3.4270   15.2470   -1.0900 C   0  0  0  0  0  0  0  0  0  0  0  0
   -2.2890   14.9100   -0.3090 C   0  0  0  0  0  0  0  0  0  0  0  0
   -4.6360   15.4470   -0.4440 C   0  0  0  0  0  0  0  0  0  0  0  0
   -2.4420   14.7990    1.0800 C   0  0  0  0  0  0  0  0  0  0  0  0
   -4.6630   15.3060    0.9210 C   0  0  0  0  0  0  0  0  0  0  0  0
   -1.0000   14.6840   -0.8390 C   0  0  0  0  0  0  0  0  0  0  0  0
   -3.6030   14.9930    1.6660 N   0  0  0  0  0  0  0  0  0  0  0  0
   -1.4380   14.4990    1.8760 N   0  0  0  0  0  0  0  0  0  0  0  0
    0.0500   14.3710    0.0070 C   0  0  0  0  0  0  0  0  0  0  0  0
   -0.2330   14.2920    1.3560 C   0  0  0  0  0  0  0  0  0  0  0  0
  1  2  1  0
  2  3  1  0
  2  4  2  0
  4  5  1  0
  3  6  2  0
  5  6  1  0
  6  7  1  0
  5  8  1  0
  8  9  1  0
  7 10  1  0
  9 11  1  0
 10 12  1  0
 11 13  2  0
 11 14  1  0
 12 15  1  0
 15 16  1  0
 16 17  1  0
 16 18  2  0
 17 19  2  0
 18 20  1  0
 17 21  1  0
 19 22  1  0
 20 22  2  0
 19 23  1  0
 21 24  2  0
 23 25  2  0
 24 25  1  0
M  END
>  <%Rank>  (35) 
2.59542

>  <N_hits>  (35) 
2

>  <submitter_name>  (35) 
nan

>  <original SMILES>  (35) 
nan

>  <∆G_unbound>  (35) 
0.543043

>  <∆G_bound>  (35) 
-4.093093

>  <regarded>  (35) 
mArh-x0628_0_A_α,mArh-x0849_0_A_α

>  <ref_pdb>  (35) 
nan

>  <smiles>  (35) 
Cc1nc(CCCOc2ccnc3ncccc23)n(CCC(=O)O)n1

>  <submitter_email>  (35) 
nan

>  <disregarded>  (35) 


>  <LE>  (35) 
-0.185445

>  <submitter_institution>  (35) 
nan

>  <ref_mols>  (35) 
mArh-x0628_0_A,mArh-x0849_0_A

>  <N_constrained_atoms>  (35) 
23.0

>  <ref_url>  (35) 
nan

>  <method>  (35) 
nan

>  <comRMSD>  (35) 
0.301266

>  <N_unconstrained_atoms>  (35) 
2.0

>  <∆∆G>  (35) 
-4.636136

>  <runtime>  (35) 
46.632162

>  <generation_date>  (35) 
nan

$$$$
5CMS_0_R_γ-1VHU_0_A_α
     RDKit          3D

 21 22  0  0  0  0  0  0  0  0999 V2000
   -0.3730   12.5350   -3.7330 O   0  0  0  0  0  0  0  0  0  0  0  0
    0.4330   13.7070   -3.8290 C   0  0  2  0  0  0  0  0  0  0  0  0
    0.0460   14.7830   -2.8270 C   0  0  0  0  0  0  0  0  0  0  0  0
    0.2400   14.3980   -5.1700 C   0  0  2  0  0  0  0  0  0  0  0  0
    1.4100   14.1080   -5.9130 O   0  0  0  0  0  0  0  0  0  0  0  0
    0.4700   16.0110   -3.4380 O   0  0  0  0  0  0  0  0  0  0  0  0
    0.0230   15.9020   -4.7930 C   0  0  1  0  0  0  0  0  0  0  0  0
    0.5930   16.9730   -5.7470 C   0  0  0  0  0  0  0  0  0  0  0  0
    0.5420   18.4260   -5.2990 C   0  0  0  0  0  0  0  0  0  0  0  0
   -0.3940   19.1690   -6.1250 O   0  0  0  0  0  0  0  0  0  0  0  0
   -0.0240   19.8370   -7.5670 S   0  0  0  0  0  0  0  0  0  0  0  0
    0.2920   18.7080   -8.6540 O   0  0  0  0  0  0  0  0  0  0  0  0
    1.1600   20.9290   -7.4960 O   0  0  0  0  0  0  0  0  0  0  0  0
   -1.5030   20.6400   -8.1490 C   0  0  0  0  0  0  0  0  0  0  0  0
   -1.9290   21.9570   -7.5390 C   0  0  0  0  0  0  0  0  0  0  0  0
   -3.3200   22.4180   -7.6860 N   0  0  0  0  0  0  0  0  0  0  0  0
   -3.6590   22.8020   -9.0540 C   0  0  0  0  0  0  0  0  0  0  0  0
   -3.7090   23.4950   -6.7740 C   0  0  0  0  0  0  0  0  0  0  0  0
   -5.1460   23.1210   -9.1830 C   0  0  0  0  0  0  0  0  0  0  0  0
   -5.1780   23.8670   -6.9650 C   0  0  0  0  0  0  0  0  0  0  0  0
   -5.4770   24.2080   -8.3240 O   0  0  0  0  0  0  0  0  0  0  0  0
  2  1  1  6
  2  3  1  0
  2  4  1  0
  4  5  1  6
  3  6  1  0
  4  7  1  0
  6  7  1  0
  7  8  1  6
  8  9  1  0
  9 10  1  0
 11 10  1  0
 11 12  1  0
 11 13  1  0
 11 14  1  0
 14 15  1  0
 15 16  1  0
 16 17  1  0
 16 18  1  0
 17 19  1  0
 18 20  1  0
 19 21  1  0
 20 21  1  0
M  END
>  <%Rank>  (36) 
2.671756

>  <N_hits>  (36) 
2

>  <submitter_name>  (36) 
nan

>  <original SMILES>  (36) 
nan

>  <∆G_unbound>  (36) 
1.074915

>  <∆G_bound>  (36) 
-11.113334

>  <regarded>  (36) 
5CMS_0_R_γ,1VHU_0_A_α

>  <ref_pdb>  (36) 
nan

>  <smiles>  (36) 
OC1COC(CCOS(O)(O)CCN2CCOCC2)C1O

>  <submitter_email>  (36) 
nan

>  <disregarded>  (36) 


>  <LE>  (36) 
-0.580393

>  <submitter_institution>  (36) 
nan

>  <ref_mols>  (36) 
5CMS_0_R,1VHU_0_A

>  <N_constrained_atoms>  (36) 
20.0

>  <ref_url>  (36) 
nan

>  <method>  (36) 
nan

>  <comRMSD>  (36) 
0.467122

>  <N_unconstrained_atoms>  (36) 
1.0

>  <∆∆G>  (36) 
-12.188249

>  <runtime>  (36) 
43.924487

>  <generation_date>  (36) 
nan

$$$$
mArh-x0685_0_A_α-6WOJ_0_C_γ
     RDKit          3D

 20 21  0  0  0  0  0  0  0  0999 V2000
   -6.1420   14.6210    2.6560 N   0  0  0  0  0  0  0  0  0  0  0  0
   -7.5820   14.8100    2.7410 C   0  0  0  0  0  0  0  0  0  0  0  0
   -8.2160   13.4730    3.0770 C   0  0  0  0  0  0  0  0  0  0  0  0
   -5.4890   14.7960    1.4520 C   0  0  0  0  0  0  0  0  0  0  0  0
   -4.1120   14.9500    1.3910 C   0  0  0  0  0  0  0  0  0  0  0  0
   -6.2740   14.8000    0.3550 N   0  0  0  0  0  0  0  0  0  0  0  0
   -3.5120   15.1100    0.1630 C   0  0  0  0  0  0  0  0  0  0  0  0
   -5.6600   14.9610   -0.8400 C   0  0  0  0  0  0  0  0  0  0  0  0
   -4.2970   15.1140   -0.9730 C   0  0  0  0  0  0  0  0  0  0  0  0
   -3.6540   15.2680   -2.2170 C   0  0  0  0  0  0  0  0  0  0  0  0
   -2.9590   15.3280   -3.1670 C   0  0  0  0  0  0  0  0  0  0  0  0
   -1.9050   15.3210   -4.1610 C   0  0  0  0  0  0  0  0  0  0  0  0
   -0.7210   14.6480   -3.4710 C   0  0  2  0  0  0  0  0  0  0  0  0
    0.3610   15.5750   -3.2370 O   0  0  0  0  0  0  0  0  0  0  0  0
   -0.1000   13.4990   -4.2330 C   0  0  1  0  0  0  0  0  0  0  0  0
   -1.0580   12.7650   -4.9960 O   0  0  0  0  0  0  0  0  0  0  0  0
    1.1870   15.5410   -4.4170 C   0  0  1  0  0  0  0  0  0  0  0  0
    0.8720   14.2180   -5.1540 C   0  0  1  0  0  0  0  0  0  0  0  0
    0.8610   16.7990   -5.2180 C   0  0  0  0  0  0  0  0  0  0  0  0
    2.0410   13.4060   -5.2430 O   0  0  0  0  0  0  0  0  0  0  0  0
  1  2  1  0
  2  3  1  0
  1  4  1  0
  4  5  2  0
  4  6  1  0
  5  7  1  0
  6  8  2  0
  7  9  2  0
  8  9  1  0
  9 10  1  0
 10 11  3  0
 11 12  1  0
 13 12  1  6
 13 14  1  0
 13 15  1  0
 15 16  1  6
 14 17  1  0
 15 18  1  0
 17 18  1  0
 17 19  1  6
 18 20  1  1
M  END
>  <%Rank>  (37) 
2.748092

>  <N_hits>  (37) 
2

>  <submitter_name>  (37) 
nan

>  <original SMILES>  (37) 
nan

>  <∆G_unbound>  (37) 
0.005716

>  <∆G_bound>  (37) 
-7.195868

>  <regarded>  (37) 
mArh-x0685_0_A_α,6WOJ_0_C_γ

>  <ref_pdb>  (37) 
nan

>  <smiles>  (37) 
CCNc1ccc(C#CCC2OC(C)C(O)C2O)cn1

>  <submitter_email>  (37) 
nan

>  <disregarded>  (37) 


>  <LE>  (37) 
-0.360079

>  <submitter_institution>  (37) 
nan

>  <ref_mols>  (37) 
mArh-x0685_0_A,6WOJ_0_C

>  <N_constrained_atoms>  (37) 
19.0

>  <ref_url>  (37) 
nan

>  <method>  (37) 
nan

>  <comRMSD>  (37) 
0.345755

>  <N_unconstrained_atoms>  (37) 
1.0

>  <∆∆G>  (37) 
-7.201584

>  <runtime>  (37) 
27.487636

>  <generation_date>  (37) 
nan

$$$$
mArh-x0128_0_A_α-mArh-6fx_7_0A_β
     RDKit          3D

 29 30  0  0  0  0  0  0  0  0999 V2000
   -6.7030   14.6060    2.5090 N   0  0  0  0  0  0  0  0  0  0  0  0
   -7.8470   15.2010    3.0030 C   0  0  0  0  0  0  0  0  0  0  0  0
   -8.8160   15.5820    2.3550 O   0  0  0  0  0  0  0  0  0  0  0  0
   -6.0590   14.7480    1.2670 C   0  0  0  0  0  0  0  0  0  0  0  0
   -7.7030   15.2940    4.3790 N   0  0  0  0  0  0  0  0  0  0  0  0
   -6.8670   14.6000    0.1390 C   0  0  0  0  0  0  0  0  0  0  0  0
   -4.6920   15.0230    1.0990 C   0  0  0  0  0  0  0  0  0  0  0  0
   -6.3270   14.7180   -1.1350 C   0  0  0  0  0  0  0  0  0  0  0  0
   -4.1530   15.1410   -0.1870 C   0  0  0  0  0  0  0  0  0  0  0  0
   -8.4740   16.0410    5.3090 C   0  0  0  0  0  0  0  0  0  0  0  0
   -4.9660   14.9860   -1.3200 C   0  0  0  0  0  0  0  0  0  0  0  0
   -9.1360   17.1950    4.8760 C   0  0  0  0  0  0  0  0  0  0  0  0
   -8.6330   15.7100    6.6540 C   0  0  0  0  0  0  0  0  0  0  0  0
   -4.3970   15.1080   -2.7110 C   0  0  0  0  0  0  0  0  0  0  0  0
   -9.9030   17.9970    5.6480 N   0  0  0  0  0  0  0  0  0  0  0  0
   -9.4180   16.5170    7.4790 C   0  0  0  0  0  0  0  0  0  0  0  0
   -2.9350   14.7970   -3.0350 C   0  0  0  0  0  0  0  0  0  0  0  0
  -10.0270   17.6380    6.9390 C   0  0  0  0  0  0  0  0  0  0  0  0
   -2.6180   15.2970   -4.4610 C   0  0  0  0  0  0  0  0  0  0  0  0
   -1.4940   16.3320   -4.5600 C   0  0  0  0  0  0  0  0  0  0  0  0
   -1.9490   17.7240   -4.7240 N   0  0  0  0  0  0  0  0  0  0  0  0
   -1.4510   18.2830   -6.1670 P   0  0  0  0  0  0  0  0  0  0  0  0
   -1.1090   19.7480   -6.5730 O   0  0  0  0  0  0  0  0  0  0  0  0
   -0.1980   17.4290   -6.5770 O   0  0  0  0  0  0  0  0  0  0  0  0
   -2.6260   17.8170   -7.1060 O   0  0  0  0  0  0  0  0  0  0  0  0
   -0.4320   20.0310   -7.9790 P   0  0  0  0  0  0  0  0  0  0  0  0
   -1.5590   20.9520   -8.6630 O   0  0  0  0  0  0  0  0  0  0  0  0
   -0.0360   18.8470   -8.7990 O   0  0  0  0  0  0  0  0  0  0  0  0
    0.7360   21.0820   -7.6770 O   0  0  0  0  0  0  0  0  0  0  0  0
  1  2  1  0
  2  3  2  0
  1  4  1  0
  2  5  1  0
  4  6  2  0
  4  7  1  0
  6  8  1  0
  7  9  2  0
  5 10  1  0
  8 11  2  0
  9 11  1  0
 10 12  2  0
 10 13  1  0
 11 14  1  0
 12 15  1  0
 13 16  2  0
 14 17  1  0
 15 18  2  0
 16 18  1  0
 17 19  1  0
 19 20  1  0
 20 21  1  0
 21 22  2  3
 22 23  1  0
 22 24  1  0
 22 25  1  0
 23 26  1  0
 26 27  1  0
 26 28  2  0
 26 29  1  0
M  END
>  <%Rank>  (38) 
2.824427

>  <N_hits>  (38) 
2

>  <submitter_name>  (38) 
nan

>  <original SMILES>  (38) 
nan

>  <∆G_unbound>  (38) 
0.709729

>  <∆G_bound>  (38) 
-14.363694

>  <regarded>  (38) 
mArh-x0128_0_A_α,mArh-6fx_7_0A_β

>  <ref_pdb>  (38) 
nan

>  <smiles>  (38) 
O=C(Nc1ccc(CCCCN=P(O)(O)OP(=O)(O)O)cc1)Nc1cccnc1

>  <submitter_email>  (38) 
nan

>  <disregarded>  (38) 


>  <LE>  (38) 
-0.519773

>  <submitter_institution>  (38) 
nan

>  <ref_mols>  (38) 
mArh-x0128_0_A,mArh-6fx_7_0A

>  <N_constrained_atoms>  (38) 
25.0

>  <ref_url>  (38) 
nan

>  <method>  (38) 
nan

>  <comRMSD>  (38) 
0.474965

>  <N_unconstrained_atoms>  (38) 
4.0

>  <∆∆G>  (38) 
-15.073423

>  <runtime>  (38) 
49.67098

>  <generation_date>  (38) 
nan

$$$$
mArh-EU0960_0_A_α-5DUS_0_A_γ
     RDKit          3D

 26 28  0  0  0  0  0  0  0  0999 V2000
   -2.1770   10.1770   -4.8850 C   0  0  0  0  0  0  0  0  0  0  0  0
   -1.0280   10.4710   -5.7920 C   0  0  0  0  0  0  0  0  0  0  0  0
   -0.7720    9.6240   -6.8970 N   0  0  0  0  0  0  0  0  0  0  0  0
   -0.1250   11.4820   -5.7200 C   0  0  0  0  0  0  0  0  0  0  0  0
   -1.8960    9.0240   -7.6410 C   0  0  0  0  0  0  0  0  0  0  0  0
   -0.0860   12.5130   -4.7080 N   0  0  0  0  0  0  0  0  0  0  0  0
    0.7860   11.2890   -6.8740 C   0  0  0  0  0  0  0  0  0  0  0  0
    0.1770   10.3280   -7.7070 N   0  0  0  0  0  0  0  0  0  0  0  0
    1.8330   11.8760   -6.9710 O   0  0  0  0  0  0  0  0  0  0  0  0
    0.8440   12.1380   -3.3010 S   0  0  0  0  0  0  0  0  0  0  0  0
    0.8640    9.6490   -8.7510 C   0  0  0  0  0  0  0  0  0  0  0  0
   -0.3230   14.0080   -4.9710 C   0  0  2  0  0  0  0  0  0  0  0  0
    0.7460   10.7150   -3.0640 O   0  0  0  0  0  0  0  0  0  0  0  0
    0.5540   13.0610   -2.2360 O   0  0  0  0  0  0  0  0  0  0  0  0
    2.4760   12.6170   -3.8660 C   0  0  0  0  0  0  0  0  0  0  0  0
    1.2890   10.3330   -9.8960 C   0  0  0  0  0  0  0  0  0  0  0  0
    1.1420    8.2770   -8.6660 C   0  0  0  0  0  0  0  0  0  0  0  0
    0.6190   15.0580   -4.3300 C   0  0  1  0  0  0  0  0  0  0  0  0
   -1.6270   14.3960   -4.3030 C   0  0  1  0  0  0  0  0  0  0  0  0
   -2.6480   13.4250   -4.4300 O   0  0  0  0  0  0  0  0  0  0  0  0
    0.5910   16.4290   -5.0220 C   0  0  0  0  0  0  0  0  0  0  0  0
    1.9730    9.6670  -10.9210 C   0  0  0  0  0  0  0  0  0  0  0  0
    1.8270    7.6110   -9.6890 C   0  0  0  0  0  0  0  0  0  0  0  0
   -1.1710   14.6450   -2.8820 C   0  0  0  0  0  0  0  0  0  0  0  0
    0.1230   15.2640   -2.9780 O   0  0  0  0  0  0  0  0  0  0  0  0
    2.2440    8.3080  -10.8170 C   0  0  0  0  0  0  0  0  0  0  0  0
  1  2  1  0
  2  3  1  0
  2  4  2  0
  3  5  1  0
  4  6  1  0
  4  7  1  0
  3  8  1  0
  7  8  1  0
  7  9  2  0
 10  6  1  0
  8 11  1  0
 12  6  1  1
 10 13  2  0
 10 14  2  0
 10 15  1  0
 11 16  2  0
 11 17  1  0
 12 18  1  0
 12 19  1  0
 19 20  1  1
 18 21  1  6
 16 22  1  0
 17 23  2  0
 19 24  1  0
 18 25  1  0
 24 25  1  0
 22 26  2  0
 23 26  1  0
M  END
>  <%Rank>  (39) 
2.900763

>  <N_hits>  (39) 
2

>  <submitter_name>  (39) 
nan

>  <original SMILES>  (39) 
nan

>  <∆G_unbound>  (39) 
2.185958

>  <∆G_bound>  (39) 
-4.921982

>  <regarded>  (39) 
mArh-EU0960_0_A_α,5DUS_0_A_γ

>  <ref_pdb>  (39) 
nan

>  <smiles>  (39) 
Cc1c(N(C2C(O)COC2C)S(C)(=O)=O)c(=O)n(-c2ccccc2)n1C

>  <submitter_email>  (39) 
nan

>  <disregarded>  (39) 


>  <LE>  (39) 
-0.273382

>  <submitter_institution>  (39) 
nan

>  <ref_mols>  (39) 
mArh-EU0960_0_A,5DUS_0_A

>  <N_constrained_atoms>  (39) 
26.0

>  <ref_url>  (39) 
nan

>  <method>  (39) 
nan

>  <comRMSD>  (39) 
0.44895

>  <N_unconstrained_atoms>  (39) 
0.0

>  <∆∆G>  (39) 
-7.10794

>  <runtime>  (39) 
38.173008

>  <generation_date>  (39) 
nan

$$$$
5CB5_0_R_β-mArh-x0471_0_A_α
     RDKit          3D

 28 29  0  0  0  0  0  0  0  0999 V2000
   -1.3470   20.4630   -8.5110 O   0  0  0  0  0  0  0  0  0  0  0  0
   -0.2360   19.8470   -7.6700 P   0  0  0  0  0  0  0  0  0  0  0  0
   -1.2100   19.4320   -6.4100 O   0  0  0  0  0  0  0  0  0  0  0  0
    0.6660   21.2030   -7.7130 O   0  0  0  0  0  0  0  0  0  0  0  0
    0.0590   18.6660   -8.8240 O   0  0  0  0  0  0  0  0  0  0  0  0
   -1.4800   17.9720   -6.0650 P   0  0  0  0  0  0  0  0  0  0  0  0
    0.0480   17.5830   -6.6090 O   0  0  0  0  0  0  0  0  0  0  0  0
   -2.7580   17.9390   -7.0730 O   0  0  0  0  0  0  0  0  0  0  0  0
   -1.6620   18.0650   -4.4870 O   0  0  0  0  0  0  0  0  0  0  0  0
   -1.1970   16.9050   -3.8960 C   0  0  0  0  0  0  0  0  0  0  0  0
   -2.3050   15.9690   -3.4440 C   0  0  0  0  0  0  0  0  0  0  0  0
   -2.0770   15.5250   -2.0460 C   0  0  0  0  0  0  0  0  0  0  0  0
   -3.2420   15.3410   -1.1310 C   0  0  0  0  0  0  0  0  0  0  0  0
   -4.5830   15.1670   -1.4780 C   0  0  0  0  0  0  0  0  0  0  0  0
   -2.9430   15.3330    0.2110 C   0  0  0  0  0  0  0  0  0  0  0  0
   -5.5910   14.9770   -0.5260 C   0  0  0  0  0  0  0  0  0  0  0  0
   -3.9260   15.1490    1.1690 C   0  0  0  0  0  0  0  0  0  0  0  0
   -6.9450   14.7790   -0.5480 N   0  0  0  0  0  0  0  0  0  0  0  0
   -5.2400   14.9660    0.8000 C   0  0  0  0  0  0  0  0  0  0  0  0
   -7.4270   14.6470    0.7120 C   0  0  0  0  0  0  0  0  0  0  0  0
   -6.3580   14.7620    1.5080 N   0  0  0  0  0  0  0  0  0  0  0  0
   -8.8420   14.4240    1.1710 C   0  0  0  0  0  0  0  0  0  0  0  0
   -8.8650   13.9870    2.5600 N   0  0  0  0  0  0  0  0  0  0  0  0
   -8.9300   14.8650    3.6720 C   0  0  0  0  0  0  0  0  0  0  0  0
   -9.2550   16.0600    3.4840 O   0  0  0  0  0  0  0  0  0  0  0  0
   -8.6430   14.4180    5.0570 C   0  0  0  0  0  0  0  0  0  0  0  0
   -9.8670   13.7620    5.6490 C   0  0  0  0  0  0  0  0  0  0  0  0
   -8.3790   15.6820    5.8910 C   0  0  0  0  0  0  0  0  0  0  0  0
  1  2  1  0
  2  3  1  0
  2  4  1  0
  2  5  1  0
  3  6  1  0
  6  7  1  0
  6  8  1  0
  6  9  1  0
  9 10  1  0
 10 11  1  0
 11 12  1  0
 12 13  1  0
 13 14  2  0
 13 15  1  0
 14 16  1  0
 15 17  2  0
 16 18  1  0
 16 19  2  0
 17 19  1  0
 18 20  1  0
 19 21  1  0
 20 21  2  0
 20 22  1  0
 22 23  1  0
 23 24  1  0
 24 25  2  0
 24 26  1  0
 26 27  1  0
 26 28  1  0
M  CHG  2   4  -1   8  -1
M  END
>  <%Rank>  (40) 
2.977099

>  <N_hits>  (40) 
2

>  <submitter_name>  (40) 
nan

>  <original SMILES>  (40) 
nan

>  <∆G_unbound>  (40) 
1.132999

>  <∆G_bound>  (40) 
-10.569998

>  <regarded>  (40) 
5CB5_0_R_β,mArh-x0471_0_A_α

>  <ref_pdb>  (40) 
nan

>  <smiles>  (40) 
CC(C)C(=O)NCc1nc2ccc(CCCO[PH]([O-])(O)O[PH]([O-])(O)O)cc2[nH]1

>  <submitter_email>  (40) 
nan

>  <disregarded>  (40) 


>  <LE>  (40) 
-0.417964

>  <submitter_institution>  (40) 
nan

>  <ref_mols>  (40) 
5CB5_0_R,mArh-x0471_0_A

>  <N_constrained_atoms>  (40) 
25.0

>  <ref_url>  (40) 
nan

>  <method>  (40) 
nan

>  <comRMSD>  (40) 
0.449621

>  <N_unconstrained_atoms>  (40) 
3.0

>  <∆∆G>  (40) 
-11.702998

>  <runtime>  (40) 
42.089119

>  <generation_date>  (40) 
nan

$$$$
mArh-1vhu_0_A_α-mArh-6woj_C_0_C_γ
     RDKit          3D

 22 23  0  0  0  0  0  0  0  0999 V2000
    0.0710   18.8250   -8.6650 O   0  0  0  0  0  0  0  0  0  0  0  0
   -0.0140   19.9840   -7.7770 S   0  0  1  0  0  0  0  0  0  0  0  0
   -0.7550   19.5040   -6.3380 N   0  0  0  0  0  0  0  0  0  0  0  0
    1.1920   20.7590   -7.4510 O   0  0  0  0  0  0  0  0  0  0  0  0
   -1.2560   21.1170   -8.3750 C   0  0  0  0  0  0  0  0  0  0  0  0
   -1.9660   21.9290   -7.3090 C   0  0  0  0  0  0  0  0  0  0  0  0
   -0.5560   18.1220   -5.9130 C   0  0  0  0  0  0  0  0  0  0  0  0
    0.6650   18.0090   -5.0280 C   0  0  0  0  0  0  0  0  0  0  0  0
   -3.3870   22.2670   -7.5060 N   0  0  0  0  0  0  0  0  0  0  0  0
    1.1640   16.6070   -4.7470 C   0  0  0  0  0  0  0  0  0  0  0  0
   -3.9240   22.1970   -8.8820 C   0  0  0  0  0  0  0  0  0  0  0  0
   -3.7160   23.5630   -6.9100 C   0  0  0  0  0  0  0  0  0  0  0  0
   -4.7000   23.4370   -9.3810 C   0  0  0  0  0  0  0  0  0  0  0  0
   -5.2080   23.8400   -7.0700 C   0  0  0  0  0  0  0  0  0  0  0  0
    0.1810   15.5140   -4.4530 C   0  0  2  0  0  0  0  0  0  0  0  0
   -5.6440   23.9550   -8.4320 O   0  0  0  0  0  0  0  0  0  0  0  0
    0.0600   15.3050   -3.0470 O   0  0  0  0  0  0  0  0  0  0  0  0
    0.4850   14.1370   -5.0460 C   0  0  1  0  0  0  0  0  0  0  0  0
    1.8720   13.8070   -4.9230 O   0  0  0  0  0  0  0  0  0  0  0  0
   -0.7060   14.1000   -2.9460 C   0  0  0  0  0  0  0  0  0  0  0  0
   -0.3140   13.2250   -4.1360 C   0  0  1  0  0  0  0  0  0  0  0  0
   -1.4060   12.6030   -4.7950 O   0  0  0  0  0  0  0  0  0  0  0  0
  1  2  2  0
  2  3  2  0
  2  4  1  1
  2  5  1  0
  5  6  1  0
  3  7  1  0
  7  8  1  0
  6  9  1  0
  8 10  1  0
  9 11  1  0
  9 12  1  0
 11 13  1  0
 12 14  1  0
 15 10  1  1
 13 16  1  0
 14 16  1  0
 15 17  1  0
 15 18  1  0
 18 19  1  1
 17 20  1  0
 18 21  1  0
 20 21  1  0
 21 22  1  6
M  CHG  1   4  -1
M  END
>  <%Rank>  (41) 
3.053435

>  <N_hits>  (41) 
2

>  <submitter_name>  (41) 
nan

>  <original SMILES>  (41) 
nan

>  <∆G_unbound>  (41) 
1.559443

>  <∆G_bound>  (41) 
-15.034014

>  <regarded>  (41) 
mArh-1vhu_0_A_α,mArh-6woj_C_0_C_γ

>  <ref_pdb>  (41) 
nan

>  <smiles>  (41) 
O=S([O-])(CCN1CCOCC1)=NCCCC1OCC(O)C1O

>  <submitter_email>  (41) 
nan

>  <disregarded>  (41) 


>  <LE>  (41) 
-0.754248

>  <submitter_institution>  (41) 
nan

>  <ref_mols>  (41) 
mArh-1vhu_0_A,mArh-6woj_C_0_C

>  <N_constrained_atoms>  (41) 
20.0

>  <ref_url>  (41) 
nan

>  <method>  (41) 
nan

>  <comRMSD>  (41) 
0.546703

>  <N_unconstrained_atoms>  (41) 
2.0

>  <∆∆G>  (41) 
-16.593457

>  <runtime>  (41) 
28.445264

>  <generation_date>  (41) 
nan

$$$$
5CB5_0_C_γ-mArh-x0471_0_A_α
     RDKit          3D

 26 28  0  0  0  0  0  0  0  0999 V2000
   -0.5600   12.6030   -3.7810 O   0  0  0  0  0  0  0  0  0  0  0  0
   -0.8160   13.9950   -3.9730 C   0  0  1  0  0  0  0  0  0  0  0  0
   -0.2600   14.8790   -2.8570 C   0  0  2  0  0  0  0  0  0  0  0  0
   -0.0050   14.5200   -5.1370 C   0  0  2  0  0  0  0  0  0  0  0  0
    1.3250   14.0310   -5.0650 O   0  0  0  0  0  0  0  0  0  0  0  0
   -1.2150   15.2340   -1.7450 C   0  0  0  0  0  0  0  0  0  0  0  0
    0.0870   16.1450   -3.4590 O   0  0  0  0  0  0  0  0  0  0  0  0
   -0.1660   16.0160   -4.8560 C   0  0  1  0  0  0  0  0  0  0  0  0
    0.7520   16.9640   -5.6020 C   0  0  0  0  0  0  0  0  0  0  0  0
   -2.6150   15.5740   -2.2430 C   0  0  0  0  0  0  0  0  0  0  0  0
   -3.6520   15.3530   -1.2040 C   0  0  0  0  0  0  0  0  0  0  0  0
   -4.9970   15.1270   -1.5430 C   0  0  0  0  0  0  0  0  0  0  0  0
   -3.2210   15.3680    0.1320 C   0  0  0  0  0  0  0  0  0  0  0  0
   -5.8660   14.9090   -0.4760 C   0  0  0  0  0  0  0  0  0  0  0  0
   -4.1080   15.1520    1.1750 C   0  0  0  0  0  0  0  0  0  0  0  0
   -7.2130   14.6560   -0.4140 N   0  0  0  0  0  0  0  0  0  0  0  0
   -5.4510   14.9140    0.8570 C   0  0  0  0  0  0  0  0  0  0  0  0
   -7.5600   14.5170    0.9180 C   0  0  0  0  0  0  0  0  0  0  0  0
   -6.5060   14.6710    1.6930 N   0  0  0  0  0  0  0  0  0  0  0  0
   -8.9340   14.2350    1.4120 C   0  0  0  0  0  0  0  0  0  0  0  0
   -8.9280   14.0630    2.8690 N   0  0  0  0  0  0  0  0  0  0  0  0
   -9.2090   15.1430    3.6920 C   0  0  0  0  0  0  0  0  0  0  0  0
   -9.4130   16.2660    3.2340 O   0  0  0  0  0  0  0  0  0  0  0  0
   -9.2810   14.8410    5.1960 C   0  0  0  0  0  0  0  0  0  0  0  0
   -9.6230   13.3790    5.4540 C   0  0  0  0  0  0  0  0  0  0  0  0
   -7.9950   15.2520    5.9050 C   0  0  0  0  0  0  0  0  0  0  0  0
  2  1  1  1
  2  3  1  0
  2  4  1  0
  4  5  1  1
  3  6  1  1
  3  7  1  0
  4  8  1  0
  7  8  1  0
  8  9  1  6
  6 10  1  0
 10 11  1  0
 11 12  2  0
 11 13  1  0
 12 14  1  0
 13 15  2  0
 14 16  1  0
 14 17  2  0
 15 17  1  0
 16 18  1  0
 17 19  1  0
 18 19  2  0
 18 20  1  0
 20 21  1  0
 21 22  1  0
 22 23  2  0
 22 24  1  0
 24 25  1  0
 24 26  1  0
M  END
>  <%Rank>  (42) 
3.129771

>  <N_hits>  (42) 
2

>  <submitter_name>  (42) 
nan

>  <original SMILES>  (42) 
nan

>  <∆G_unbound>  (42) 
1.01456

>  <∆G_bound>  (42) 
-6.597849

>  <regarded>  (42) 
5CB5_0_C_γ,mArh-x0471_0_A_α

>  <ref_pdb>  (42) 
nan

>  <smiles>  (42) 
CC(C)C(=O)NCc1nc2ccc(CCC3OC(C)C(O)C3O)cc2[nH]1

>  <submitter_email>  (42) 
nan

>  <disregarded>  (42) 


>  <LE>  (42) 
-0.292785

>  <submitter_institution>  (42) 
nan

>  <ref_mols>  (42) 
5CB5_0_C,mArh-x0471_0_A

>  <N_constrained_atoms>  (42) 
24.0

>  <ref_url>  (42) 
nan

>  <method>  (42) 
nan

>  <comRMSD>  (42) 
0.392837

>  <N_unconstrained_atoms>  (42) 
2.0

>  <∆∆G>  (42) 
-7.612408

>  <runtime>  (42) 
37.935247

>  <generation_date>  (42) 
nan

$$$$
mArh-1hjz_A_0_A_α-5CB5_0_P_γ
     RDKit          3D

 21 22  0  0  0  0  0  0  0  0999 V2000
    0.9230   21.0320   -7.6550 O   0  0  0  0  0  0  0  0  0  0  0  0
    0.0110   19.9070   -7.7470 S   0  0  0  0  0  0  0  0  0  0  0  0
    0.2630   18.8010   -8.6560 O   0  0  0  0  0  0  0  0  0  0  0  0
   -0.2150   19.3210   -6.2250 O   0  0  0  0  0  0  0  0  0  0  0  0
   -1.6350   20.5080   -8.0620 C   0  0  0  0  0  0  0  0  0  0  0  0
   -1.9900   21.7590   -7.2930 C   0  0  0  0  0  0  0  0  0  0  0  0
   -0.5890   17.9620   -5.9690 C   0  0  0  0  0  0  0  0  0  0  0  0
    0.5970   17.1240   -5.4380 C   0  0  0  0  0  0  0  0  0  0  0  0
   -3.3660   22.2230   -7.5910 N   0  0  0  0  0  0  0  0  0  0  0  0
   -3.5570   22.6200   -8.9940 C   0  0  0  0  0  0  0  0  0  0  0  0
   -3.7440   23.3680   -6.7350 C   0  0  0  0  0  0  0  0  0  0  0  0
    0.2940   15.9090   -4.5200 C   0  0  1  0  0  0  0  0  0  0  0  0
   -4.9740   23.1060   -9.3100 C   0  0  0  0  0  0  0  0  0  0  0  0
   -5.1700   23.8380   -7.0420 C   0  0  0  0  0  0  0  0  0  0  0  0
   -0.9690   16.0500   -3.8750 O   0  0  0  0  0  0  0  0  0  0  0  0
    0.2250   14.4830   -5.0780 C   0  0  1  0  0  0  0  0  0  0  0  0
    1.4730   13.8770   -5.3640 O   0  0  0  0  0  0  0  0  0  0  0  0
   -5.3900   24.1480   -8.4290 O   0  0  0  0  0  0  0  0  0  0  0  0
   -1.2190   14.8100   -3.1930 C   0  0  0  0  0  0  0  0  0  0  0  0
   -0.4200   13.7410   -3.9140 C   0  0  1  0  0  0  0  0  0  0  0  0
   -1.2070   12.6600   -4.3640 O   0  0  0  0  0  0  0  0  0  0  0  0
  1  2  2  0
  2  3  2  0
  2  4  1  0
  2  5  1  0
  5  6  1  0
  4  7  1  0
  7  8  1  0
  6  9  1  0
  9 10  1  0
  9 11  1  0
 12  8  1  6
 10 13  1  0
 11 14  1  0
 12 15  1  0
 12 16  1  0
 16 17  1  1
 13 18  1  0
 14 18  1  0
 15 19  1  0
 16 20  1  0
 19 20  1  0
 20 21  1  6
M  END
>  <%Rank>  (43) 
3.206107

>  <N_hits>  (43) 
2

>  <submitter_name>  (43) 
nan

>  <original SMILES>  (43) 
nan

>  <∆G_unbound>  (43) 
0.647682

>  <∆G_bound>  (43) 
-10.601419

>  <regarded>  (43) 
mArh-1hjz_A_0_A_α,5CB5_0_P_γ

>  <ref_pdb>  (43) 
nan

>  <smiles>  (43) 
O=S(=O)(CCN1CCOCC1)OCCC1OCC(O)C1O

>  <submitter_email>  (43) 
nan

>  <disregarded>  (43) 


>  <LE>  (43) 
-0.535672

>  <submitter_institution>  (43) 
nan

>  <ref_mols>  (43) 
mArh-1hjz_A_0_A,5CB5_0_P

>  <N_constrained_atoms>  (43) 
20.0

>  <ref_url>  (43) 
nan

>  <method>  (43) 
nan

>  <comRMSD>  (43) 
0.465733

>  <N_unconstrained_atoms>  (43) 
1.0

>  <∆∆G>  (43) 
-11.249102

>  <runtime>  (43) 
43.416438

>  <generation_date>  (43) 
nan

$$$$
mArh-5cb5_G_0_G_β-mArh-x0438_0_A_α
     RDKit          3D

 26 27  0  0  0  0  0  0  0  0999 V2000
   -1.6130   20.4860   -8.2790 O   0  0  0  0  0  0  0  0  0  0  0  0
   -0.2640   19.8240   -7.7590 P   0  0  0  0  0  0  0  0  0  0  0  0
   -0.5080   19.1760   -6.3400 O   0  0  0  0  0  0  0  0  0  0  0  0
    0.9020   20.7370   -7.7960 O   0  0  0  0  0  0  0  0  0  0  0  0
   -0.1480   18.5790   -8.7450 O   0  0  0  0  0  0  0  0  0  0  0  0
   -1.9050   18.5500   -5.9620 P   0  0  2  0  0  0  0  0  0  0  0  0
   -1.7280   17.6040   -4.6850 O   0  0  0  0  0  0  0  0  0  0  0  0
   -2.7000   17.9390   -7.0380 O   0  0  0  0  0  0  0  0  0  0  0  0
   -2.6340   19.7440   -5.2210 O   0  0  0  0  0  0  0  0  0  0  0  0
   -1.9150   16.2060   -4.9010 C   0  0  0  0  0  0  0  0  0  0  0  0
   -2.8800   15.5780   -3.8820 C   0  0  0  0  0  0  0  0  0  0  0  0
   -2.3520   15.5480   -2.4490 C   0  0  0  0  0  0  0  0  0  0  0  0
   -3.4010   15.2900   -1.3780 C   0  0  0  0  0  0  0  0  0  0  0  0
   -4.7700   15.0930   -1.6820 C   0  0  0  0  0  0  0  0  0  0  0  0
   -2.9630   15.2420   -0.0490 C   0  0  0  0  0  0  0  0  0  0  0  0
   -5.6330   14.8400   -0.6010 C   0  0  0  0  0  0  0  0  0  0  0  0
   -3.8460   14.9930    1.0030 C   0  0  0  0  0  0  0  0  0  0  0  0
   -6.9940   14.5950   -0.5160 N   0  0  0  0  0  0  0  0  0  0  0  0
   -5.1990   14.7860    0.7160 C   0  0  0  0  0  0  0  0  0  0  0  0
   -7.3170   14.3990    0.8160 C   0  0  0  0  0  0  0  0  0  0  0  0
   -6.2460   14.5180    1.5650 N   0  0  0  0  0  0  0  0  0  0  0  0
   -8.6920   14.0860    1.3040 C   0  0  0  0  0  0  0  0  0  0  0  0
   -9.3270   15.2800    2.4780 S   0  0  0  0  0  0  0  0  0  0  0  0
   -8.1030   15.4490    3.7680 C   0  0  0  0  0  0  0  0  0  0  0  0
  -10.5230   14.7120    3.0800 O   0  0  0  0  0  0  0  0  0  0  0  0
   -9.4450   16.5430    1.7800 O   0  0  0  0  0  0  0  0  0  0  0  0
  1  2  1  0
  2  3  1  0
  2  4  2  0
  2  5  1  0
  3  6  1  0
  6  7  1  0
  6  8  2  0
  6  9  1  1
  7 10  1  0
 10 11  1  0
 11 12  1  0
 12 13  1  0
 13 14  2  0
 13 15  1  0
 14 16  1  0
 15 17  2  0
 16 18  1  0
 16 19  2  0
 17 19  1  0
 18 20  1  0
 19 21  1  0
 20 21  2  0
 20 22  1  0
 23 22  1  0
 23 24  1  0
 23 25  2  0
 23 26  2  0
M  END
>  <%Rank>  (44) 
3.282443

>  <N_hits>  (44) 
2

>  <submitter_name>  (44) 
nan

>  <original SMILES>  (44) 
nan

>  <∆G_unbound>  (44) 
0.713782

>  <∆G_bound>  (44) 
-12.780287

>  <regarded>  (44) 
mArh-5cb5_G_0_G_β,mArh-x0438_0_A_α

>  <ref_pdb>  (44) 
nan

>  <smiles>  (44) 
CS(=O)(=O)Cc1nc2ccc(CCCOP(=O)(O)OP(=O)(O)O)cc2[nH]1

>  <submitter_email>  (44) 
nan

>  <disregarded>  (44) 


>  <LE>  (44) 
-0.519003

>  <submitter_institution>  (44) 
nan

>  <ref_mols>  (44) 
mArh-5cb5_G_0_G,mArh-x0438_0_A

>  <N_constrained_atoms>  (44) 
23.0

>  <ref_url>  (44) 
nan

>  <method>  (44) 
nan

>  <comRMSD>  (44) 
0.472666

>  <N_unconstrained_atoms>  (44) 
3.0

>  <∆∆G>  (44) 
-13.494069

>  <runtime>  (44) 
30.175154

>  <generation_date>  (44) 
nan

$$$$
mArh-x0628_0_A_α-mArh-6fx_7_0A_β
     RDKit          3D

 24 24  0  0  0  0  0  0  0  0999 V2000
   -0.8300    9.1080   -7.3030 C   0  0  0  0  0  0  0  0  0  0  0  0
   -0.8230   10.3110   -6.4550 C   0  0  0  0  0  0  0  0  0  0  0  0
   -1.8410   10.6170   -5.5930 N   0  0  0  0  0  0  0  0  0  0  0  0
    0.1790   11.1960   -6.4640 N   0  0  0  0  0  0  0  0  0  0  0  0
   -0.2260   12.1060   -5.5520 N   0  0  0  0  0  0  0  0  0  0  0  0
   -1.4520   11.7470   -5.0320 C   0  0  0  0  0  0  0  0  0  0  0  0
   -2.2070   12.5060   -4.0070 C   0  0  0  0  0  0  0  0  0  0  0  0
    0.6400   13.2670   -5.2660 C   0  0  2  0  0  0  0  0  0  0  0  0
    1.6610   12.9000   -4.1840 C   0  0  0  0  0  0  0  0  0  0  0  0
   -0.1090   14.5620   -4.8650 C   0  0  0  0  0  0  0  0  0  0  0  0
    1.0560   12.2600   -2.9650 C   0  0  0  0  0  0  0  0  0  0  0  0
    0.8070   15.7540   -4.4920 C   0  0  0  0  0  0  0  0  0  0  0  0
    0.6120   11.1290   -2.8780 O   0  0  0  0  0  0  0  0  0  0  0  0
    1.0230   13.0470   -1.8800 O   0  0  0  0  0  0  0  0  0  0  0  0
    0.6010   17.0460   -5.2840 C   0  0  0  0  0  0  0  0  0  0  0  0
   -0.6690   17.0320   -5.9140 O   0  0  0  0  0  0  0  0  0  0  0  0
   -1.5340   18.3650   -5.9140 P   0  0  2  0  0  0  0  0  0  0  0  0
   -0.6330   19.5310   -6.4340 O   0  0  0  0  0  0  0  0  0  0  0  0
   -2.2240   18.6630   -4.6620 O   0  0  0  0  0  0  0  0  0  0  0  0
   -2.6040   18.0980   -7.0700 O   0  0  0  0  0  0  0  0  0  0  0  0
   -0.3440   19.8510   -7.9230 P   0  0  0  0  0  0  0  0  0  0  0  0
   -1.5920   20.7140   -8.3900 O   0  0  0  0  0  0  0  0  0  0  0  0
    0.0120   18.7270   -8.8240 O   0  0  0  0  0  0  0  0  0  0  0  0
    0.7820   20.9730   -7.8100 O   0  0  0  0  0  0  0  0  0  0  0  0
  1  2  1  0
  2  3  1  0
  2  4  2  0
  4  5  1  0
  3  6  2  0
  5  6  1  0
  6  7  1  0
  5  8  1  0
  8  9  1  1
  8 10  1  0
  9 11  1  0
 10 12  1  0
 11 13  2  0
 11 14  1  0
 12 15  1  0
 15 16  1  0
 16 17  1  0
 17 18  1  0
 17 19  2  0
 17 20  1  6
 18 21  1  0
 21 22  1  0
 21 23  2  0
 21 24  1  0
M  END
>  <%Rank>  (45) 
3.358779

>  <N_hits>  (45) 
2

>  <submitter_name>  (45) 
nan

>  <original SMILES>  (45) 
nan

>  <∆G_unbound>  (45) 
2.622129

>  <∆G_bound>  (45) 
-10.089555

>  <regarded>  (45) 
mArh-x0628_0_A_α,mArh-6fx_7_0A_β

>  <ref_pdb>  (45) 
nan

>  <smiles>  (45) 
Cc1nc(C)n(C(CCCOP(=O)(O)OP(=O)(O)O)CC(=O)O)n1

>  <submitter_email>  (45) 
nan

>  <disregarded>  (45) 


>  <LE>  (45) 
-0.529654

>  <submitter_institution>  (45) 
nan

>  <ref_mols>  (45) 
mArh-x0628_0_A,mArh-6fx_7_0A

>  <N_constrained_atoms>  (45) 
21.0

>  <ref_url>  (45) 
nan

>  <method>  (45) 
nan

>  <comRMSD>  (45) 
0.443087

>  <N_unconstrained_atoms>  (45) 
3.0

>  <∆∆G>  (45) 
-12.711685

>  <runtime>  (45) 
33.485239

>  <generation_date>  (45) 
nan

$$$$
5CMS_0_O_δ-1HJZ_0_B_α
     RDKit          3D

 26 28  0  0  0  0  0  0  0  0999 V2000
   -3.6910   15.5560    1.6300 N   0  0  0  0  0  0  0  0  0  0  0  0
   -2.6680   14.6890    1.0830 C   0  0  1  0  0  0  0  0  0  0  0  0
   -2.6710   14.6500   -0.4450 C   0  0  2  0  0  0  0  0  0  0  0  0
   -1.4230   15.2020    1.5920 N   0  0  0  0  0  0  0  0  0  0  0  0
   -1.2880   15.0710   -0.9170 C   0  0  2  0  0  0  0  0  0  0  0  0
   -3.4960   15.4950   -1.2740 N   0  0  0  0  0  0  0  0  0  0  0  0
   -0.2210   14.5520    1.1210 C   0  0  0  0  0  0  0  0  0  0  0  0
   -1.3870   15.1150   -2.3850 N   0  0  0  0  0  0  0  0  0  0  0  0
   -2.8650   15.1480   -2.5540 C   0  0  0  0  0  0  0  0  0  0  0  0
   -0.2450   14.2950   -0.3040 N   0  0  0  0  0  0  0  0  0  0  0  0
   -0.8500   16.3590   -2.9500 C   0  0  0  0  0  0  0  0  0  0  0  0
    0.2260   16.2950   -4.0380 C   0  0  0  0  0  0  0  0  0  0  0  0
    0.6120   17.7550   -4.3690 C   0  0  0  0  0  0  0  0  0  0  0  0
    0.6390   18.0600   -5.8630 C   0  0  0  0  0  0  0  0  0  0  0  0
   -0.1670   19.1980   -6.1850 O   0  0  0  0  0  0  0  0  0  0  0  0
   -0.0170   19.8860   -7.6300 S   0  0  0  0  0  0  0  0  0  0  0  0
    1.1130   21.0390   -7.6040 O   0  0  0  0  0  0  0  0  0  0  0  0
    0.2790   18.8060   -8.7720 O   0  0  0  0  0  0  0  0  0  0  0  0
   -1.5740   20.6420   -8.0560 C   0  0  0  0  0  0  0  0  0  0  0  0
   -1.9820   21.8850   -7.3000 C   0  0  0  0  0  0  0  0  0  0  0  0
   -3.3960   22.2740   -7.5130 N   0  0  0  0  0  0  0  0  0  0  0  0
   -3.6110   22.6950   -8.9050 C   0  0  0  0  0  0  0  0  0  0  0  0
   -3.7980   23.3980   -6.6470 C   0  0  0  0  0  0  0  0  0  0  0  0
   -5.0530   23.1210   -9.1760 C   0  0  0  0  0  0  0  0  0  0  0  0
   -5.2130   23.8780   -6.9400 C   0  0  0  0  0  0  0  0  0  0  0  0
   -5.4360   24.1970   -8.3180 O   0  0  0  0  0  0  0  0  0  0  0  0
  2  1  1  6
  2  3  1  0
  2  4  1  0
  3  5  1  0
  3  6  1  6
  4  7  1  0
  5  8  1  0
  6  9  1  0
  8  9  1  0
  5 10  1  6
  7 10  1  0
  8 11  1  0
 11 12  1  0
 12 13  1  0
 13 14  1  0
 14 15  1  0
 16 15  1  0
 16 17  1  0
 16 18  1  0
 16 19  1  0
 19 20  1  0
 20 21  1  0
 21 22  1  0
 21 23  1  0
 22 24  1  0
 23 25  1  0
 24 26  1  0
 25 26  1  0
M  END
>  <%Rank>  (46) 
3.435115

>  <N_hits>  (46) 
2

>  <submitter_name>  (46) 
nan

>  <original SMILES>  (46) 
nan

>  <∆G_unbound>  (46) 
1.149639

>  <∆G_bound>  (46) 
-13.672423

>  <regarded>  (46) 
5CMS_0_O_δ,1HJZ_0_B_α

>  <ref_pdb>  (46) 
nan

>  <smiles>  (46) 
NC1NCNC2C1NCN2CCCCOS(O)(O)CCN1CCOCC1

>  <submitter_email>  (46) 
nan

>  <disregarded>  (46) 


>  <LE>  (46) 
-0.570079

>  <submitter_institution>  (46) 
nan

>  <ref_mols>  (46) 
5CMS_0_O,1HJZ_0_B

>  <N_constrained_atoms>  (46) 
22.0

>  <ref_url>  (46) 
nan

>  <method>  (46) 
nan

>  <comRMSD>  (46) 
0.464755

>  <N_unconstrained_atoms>  (46) 
4.0

>  <∆∆G>  (46) 
-14.822062

>  <runtime>  (46) 
47.466486

>  <generation_date>  (46) 
nan

$$$$
5CMS_0_A_γ-mArh-x0290_0_A_α
     RDKit          3D

 20 21  0  0  0  0  0  0  0  0999 V2000
   -0.3410   12.2430   -3.2040 O   0  0  0  0  0  0  0  0  0  0  0  0
   -1.0320   13.3780   -3.7220 C   0  0  1  0  0  0  0  0  0  0  0  0
   -1.1700   14.6110   -2.7580 C   0  0  2  0  0  0  0  0  0  0  0  0
   -0.2250   13.9600   -4.9010 C   0  0  2  0  0  0  0  0  0  0  0  0
    1.1180   13.4450   -4.8720 O   0  0  0  0  0  0  0  0  0  0  0  0
   -0.1680   15.5390   -3.2040 O   0  0  0  0  0  0  0  0  0  0  0  0
   -0.2810   15.4650   -4.6240 C   0  0  1  0  0  0  0  0  0  0  0  0
   -1.3180   14.5660   -1.2180 C   0  0  0  0  0  0  0  0  0  0  0  0
    0.7620   16.3560   -5.2770 C   0  0  0  0  0  0  0  0  0  0  0  0
   -0.2470   14.5150   -0.3110 C   0  0  0  0  0  0  0  0  0  0  0  0
   -2.6120   14.5940   -0.6500 C   0  0  0  0  0  0  0  0  0  0  0  0
   -0.5220   14.4970    1.0610 C   0  0  0  0  0  0  0  0  0  0  0  0
   -2.8080   14.5730    0.7280 C   0  0  0  0  0  0  0  0  0  0  0  0
   -4.0700   14.6010    1.3290 N   0  0  0  0  0  0  0  0  0  0  0  0
   -1.7660   14.5260    1.5980 N   0  0  0  0  0  0  0  0  0  0  0  0
   -5.3280   14.4290    0.8420 C   0  0  0  0  0  0  0  0  0  0  0  0
   -5.4850   14.5360   -0.3800 O   0  0  0  0  0  0  0  0  0  0  0  0
   -6.5370   14.0950    1.7140 C   0  0  0  0  0  0  0  0  0  0  0  0
   -7.7530   13.8070    0.9200 N   0  0  0  0  0  0  0  0  0  0  0  0
   -8.5930   14.9800    0.7260 C   0  0  0  0  0  0  0  0  0  0  0  0
  2  1  1  1
  2  3  1  0
  2  4  1  0
  4  5  1  1
  3  6  1  0
  4  7  1  0
  6  7  1  0
  3  8  1  1
  7  9  1  6
  8 10  2  0
  8 11  1  0
 10 12  1  0
 11 13  2  0
 13 14  1  0
 12 15  2  0
 13 15  1  0
 14 16  1  0
 16 17  2  0
 16 18  1  0
 18 19  1  0
 19 20  1  0
M  END
>  <%Rank>  (47) 
3.51145

>  <N_hits>  (47) 
2

>  <submitter_name>  (47) 
nan

>  <original SMILES>  (47) 
nan

>  <∆G_unbound>  (47) 
1.000854

>  <∆G_bound>  (47) 
-6.932903

>  <regarded>  (47) 
5CMS_0_A_γ,mArh-x0290_0_A_α

>  <ref_pdb>  (47) 
nan

>  <smiles>  (47) 
CNCC(=O)Nc1cc(C2OC(C)C(O)C2O)ccn1

>  <submitter_email>  (47) 
nan

>  <disregarded>  (47) 


>  <LE>  (47) 
-0.396688

>  <submitter_institution>  (47) 
nan

>  <ref_mols>  (47) 
5CMS_0_A,mArh-x0290_0_A

>  <N_constrained_atoms>  (47) 
20.0

>  <ref_url>  (47) 
nan

>  <method>  (47) 
nan

>  <comRMSD>  (47) 
0.433265

>  <N_unconstrained_atoms>  (47) 
0.0

>  <∆∆G>  (47) 
-7.933756

>  <runtime>  (47) 
30.308144

>  <generation_date>  (47) 
nan

$$$$
5CMS_0_A_γ-6WOJ_0_A_β
     RDKit          3D

 16 16  0  0  0  0  0  0  0  0999 V2000
   -0.4760   12.0350   -4.0070 O   0  0  0  0  0  0  0  0  0  0  0  0
   -0.8930   13.3560   -4.1260 C   0  0  1  0  0  0  0  0  0  0  0  0
   -0.6090   14.1750   -2.8700 C   0  0  0  0  0  0  0  0  0  0  0  0
   -0.1260   14.1140   -5.1670 C   0  0  2  0  0  0  0  0  0  0  0  0
    1.2280   13.8050   -4.9820 O   0  0  0  0  0  0  0  0  0  0  0  0
   -0.1780   15.4280   -3.3410 O   0  0  0  0  0  0  0  0  0  0  0  0
   -0.5360   15.4600   -4.6780 C   0  0  1  0  0  0  0  0  0  0  0  0
   -0.0510   16.7420   -5.3690 C   0  0  0  0  0  0  0  0  0  0  0  0
   -1.3270   17.9170   -5.6970 P   0  0  0  0  0  0  0  0  0  0  0  0
   -0.4710   19.1390   -6.0470 O   0  0  0  0  0  0  0  0  0  0  0  0
   -1.7920   18.9410   -4.4400 O   0  0  0  0  0  0  0  0  0  0  0  0
   -2.2200   18.0240   -7.0270 O   0  0  0  0  0  0  0  0  0  0  0  0
    0.1340   19.5740   -7.4620 P   0  0  0  0  0  0  0  0  0  0  0  0
   -1.0960   20.3970   -7.8870 O   0  0  0  0  0  0  0  0  0  0  0  0
    1.0970   20.9570   -7.5950 O   0  0  0  0  0  0  0  0  0  0  0  0
    0.0590   18.5380   -8.7300 O   0  0  0  0  0  0  0  0  0  0  0  0
  2  1  1  1
  2  3  1  0
  2  4  1  0
  4  5  1  1
  3  6  1  0
  4  7  1  0
  6  7  1  0
  7  8  1  6
  8  9  1  0
  9 10  1  0
  9 11  1  0
  9 12  1  0
 10 13  1  0
 13 14  1  0
 13 15  1  0
 13 16  1  0
M  CHG  2  11  -1  15  -1
M  END
>  <%Rank>  (48) 
3.587786

>  <N_hits>  (48) 
2

>  <submitter_name>  (48) 
nan

>  <original SMILES>  (48) 
nan

>  <∆G_unbound>  (48) 
0.683631

>  <∆G_bound>  (48) 
-7.593964

>  <regarded>  (48) 
5CMS_0_A_γ,6WOJ_0_A_β

>  <ref_pdb>  (48) 
nan

>  <smiles>  (48) 
[O-][PH](O)(O)O[PH]([O-])(O)CC1OCC(O)C1O

>  <submitter_email>  (48) 
nan

>  <disregarded>  (48) 


>  <LE>  (48) 
-0.51735

>  <submitter_institution>  (48) 
nan

>  <ref_mols>  (48) 
5CMS_0_A,6WOJ_0_A

>  <N_constrained_atoms>  (48) 
16.0

>  <ref_url>  (48) 
nan

>  <method>  (48) 
nan

>  <comRMSD>  (48) 
0.412271

>  <N_unconstrained_atoms>  (48) 
0.0

>  <∆∆G>  (48) 
-8.277595

>  <runtime>  (48) 
34.25877

>  <generation_date>  (48) 
nan

$$$$
5CMS_0_H_δ-6YWK_0_E_α
     RDKit          3D

 29 31  0  0  0  0  0  0  0  0999 V2000
   -3.7260   15.5180    1.7910 N   0  0  0  0  0  0  0  0  0  0  0  0
   -2.6730   14.7790    1.1390 C   0  0  1  0  0  0  0  0  0  0  0  0
   -2.7310   14.7550   -0.3900 C   0  0  2  0  0  0  0  0  0  0  0  0
   -1.4260   15.3490    1.5650 N   0  0  0  0  0  0  0  0  0  0  0  0
   -1.4510   15.3530   -0.9890 C   0  0  2  0  0  0  0  0  0  0  0  0
   -3.7050   15.4810   -1.1620 N   0  0  0  0  0  0  0  0  0  0  0  0
   -0.2600   14.6850    1.0160 C   0  0  0  0  0  0  0  0  0  0  0  0
   -1.7250   15.1260   -2.4280 N   0  0  0  0  0  0  0  0  0  0  0  0
   -3.2080   15.0510   -2.4630 C   0  0  0  0  0  0  0  0  0  0  0  0
   -0.2830   14.6890   -0.4410 N   0  0  0  0  0  0  0  0  0  0  0  0
   -1.3490   16.1440   -3.4520 C   0  0  0  0  0  0  0  0  0  0  0  0
    0.1280   16.5710   -3.5900 C   0  0  0  0  0  0  0  0  0  0  0  0
    0.5990   16.7170   -5.0630 C   0  0  0  0  0  0  0  0  0  0  0  0
    1.0680   18.1100   -5.5140 C   0  0  0  0  0  0  0  0  0  0  0  0
   -0.0240   18.8840   -5.9940 O   0  0  0  0  0  0  0  0  0  0  0  0
    0.0060   19.7430   -7.3690 S   0  0  0  0  0  0  0  0  0  0  0  0
    1.1910   20.8440   -7.4660 O   0  0  0  0  0  0  0  0  0  0  0  0
    0.0350   18.7680   -8.6500 O   0  0  0  0  0  0  0  0  0  0  0  0
   -1.5760   20.6040   -7.2980 C   0  0  0  0  0  0  0  0  0  0  0  0
   -1.7760   21.6010   -8.4310 C   0  0  0  0  0  0  0  0  0  0  0  0
   -2.9070   22.5780   -8.3410 N   0  0  0  0  0  0  0  0  0  0  0  0
   -2.9410   23.2300   -7.0350 C   0  0  0  0  0  0  0  0  0  0  0  0
   -4.2090   21.9530   -8.5800 C   0  0  0  0  0  0  0  0  0  0  0  0
   -4.2140   23.9940   -6.6260 C   0  0  0  0  0  0  0  0  0  0  0  0
   -5.0790   21.9000   -7.3100 C   0  0  0  0  0  0  0  0  0  0  0  0
   -5.4550   23.2420   -6.9010 N   0  0  0  0  0  0  0  0  0  0  0  0
   -6.1330   23.8560   -8.0500 C   0  0  0  0  0  0  0  0  0  0  0  0
   -6.6480   22.8540   -9.0840 C   0  0  0  0  0  0  0  0  0  0  0  0
   -7.9660   23.1830   -9.4920 O   0  0  0  0  0  0  0  0  0  0  0  0
  2  1  1  1
  2  3  1  0
  2  4  1  0
  3  5  1  0
  3  6  1  1
  4  7  1  0
  5  8  1  0
  6  9  1  0
  8  9  1  0
  5 10  1  1
  7 10  1  0
  8 11  1  0
 11 12  1  0
 12 13  1  0
 13 14  1  0
 14 15  1  0
 16 15  1  0
 16 17  1  0
 16 18  1  0
 16 19  1  0
 19 20  1  0
 20 21  1  0
 21 22  1  0
 21 23  1  0
 22 24  1  0
 23 25  1  0
 24 26  1  0
 25 26  1  0
 26 27  1  0
 27 28  1  0
 28 29  1  0
M  END
>  <%Rank>  (49) 
3.664122

>  <N_hits>  (49) 
2

>  <submitter_name>  (49) 
nan

>  <original SMILES>  (49) 
nan

>  <∆G_unbound>  (49) 
1.04213

>  <∆G_bound>  (49) 
-12.657275

>  <regarded>  (49) 
5CMS_0_H_δ,6YWK_0_E_α

>  <ref_pdb>  (49) 
nan

>  <smiles>  (49) 
NC1NCNC2C1NCN2CCCCOS(O)(O)CCN1CCN(CCO)CC1

>  <submitter_email>  (49) 
nan

>  <disregarded>  (49) 


>  <LE>  (49) 
-0.472393

>  <submitter_institution>  (49) 
nan

>  <ref_mols>  (49) 
5CMS_0_H,6YWK_0_E

>  <N_constrained_atoms>  (49) 
25.0

>  <ref_url>  (49) 
nan

>  <method>  (49) 
nan

>  <comRMSD>  (49) 
0.476745

>  <N_unconstrained_atoms>  (49) 
4.0

>  <∆∆G>  (49) 
-13.699404

>  <runtime>  (49) 
62.988273

>  <generation_date>  (49) 
nan

$$$$
mArh-x0685_0_A_α-3Q6Z_0_A_α
     RDKit          3D

 26 27  0  0  0  0  0  0  0  0999 V2000
   -5.7460   14.6180    2.8470 N   0  0  0  0  0  0  0  0  0  0  0  0
   -7.2010   14.7530    2.9590 C   0  0  0  0  0  0  0  0  0  0  0  0
   -7.7950   13.3780    3.2050 C   0  0  0  0  0  0  0  0  0  0  0  0
   -5.2360   14.7870    1.5440 C   0  0  0  0  0  0  0  0  0  0  0  0
   -3.8570   14.9190    1.4080 C   0  0  0  0  0  0  0  0  0  0  0  0
   -6.0500   14.8230    0.4660 N   0  0  0  0  0  0  0  0  0  0  0  0
   -3.2980   15.0960    0.1430 C   0  0  0  0  0  0  0  0  0  0  0  0
   -5.4870   14.9990   -0.7590 C   0  0  0  0  0  0  0  0  0  0  0  0
   -4.1260   15.1410   -0.9740 C   0  0  0  0  0  0  0  0  0  0  0  0
   -3.5850   15.3300   -2.2900 C   0  0  0  0  0  0  0  0  0  0  0  0
   -3.1010   15.5410   -3.3810 C   0  0  0  0  0  0  0  0  0  0  0  0
   -2.4880   15.8520   -4.6950 C   0  0  0  0  0  0  0  0  0  0  0  0
   -1.4400   16.9850   -4.6290 C   0  0  0  0  0  0  0  0  0  0  0  0
   -0.7850   17.3050   -5.9680 C   0  0  0  0  0  0  0  0  0  0  0  0
   -0.1010   18.6560   -6.0020 C   0  0  0  0  0  0  0  0  0  0  0  0
   -0.4900   19.5090   -7.2220 C   0  0  0  0  0  0  0  0  0  0  0  0
   -1.7660   20.3210   -6.9730 C   0  0  0  0  0  0  0  0  0  0  0  0
   -1.9680   21.5390   -7.8920 C   0  0  0  0  0  0  0  0  0  0  0  0
   -3.4260   21.7670   -8.3170 C   0  0  2  0  0  0  0  0  0  0  0  0
   -3.9400   23.1880   -8.0100 C   0  0  1  0  0  0  0  0  0  0  0  0
   -4.2650   20.8290   -7.6190 O   0  0  0  0  0  0  0  0  0  0  0  0
   -4.2290   23.9200   -9.1940 O   0  0  0  0  0  0  0  0  0  0  0  0
   -5.2580   22.9960   -7.2900 C   0  0  1  0  0  0  0  0  0  0  0  0
   -5.4330   21.4870   -7.1470 C   0  0  1  0  0  0  0  0  0  0  0  0
   -5.3060   23.6960   -6.0590 O   0  0  0  0  0  0  0  0  0  0  0  0
   -6.5700   21.0620   -7.9090 O   0  0  0  0  0  0  0  0  0  0  0  0
  1  2  1  0
  2  3  1  0
  1  4  1  0
  4  5  2  0
  4  6  1  0
  5  7  1  0
  6  8  2  0
  7  9  2  0
  8  9  1  0
  9 10  1  0
 10 11  3  0
 11 12  1  0
 12 13  1  0
 13 14  1  0
 14 15  1  0
 15 16  1  0
 16 17  1  0
 17 18  1  0
 19 18  1  1
 19 20  1  0
 19 21  1  0
 20 22  1  6
 20 23  1  0
 21 24  1  0
 23 24  1  0
 23 25  1  1
 24 26  1  6
M  END
>  <%Rank>  (50) 
3.740458

>  <N_hits>  (50) 
2

>  <submitter_name>  (50) 
nan

>  <original SMILES>  (50) 
nan

>  <∆G_unbound>  (50) 
-0.006949

>  <∆G_bound>  (50) 
-15.98373

>  <regarded>  (50) 
mArh-x0685_0_A_α,3Q6Z_0_A_α

>  <ref_pdb>  (50) 
nan

>  <smiles>  (50) 
CCNc1ccc(C#CCCCCCCCC2OC(O)C(O)C2O)cn1

>  <submitter_email>  (50) 
nan

>  <disregarded>  (50) 


>  <LE>  (50) 
-0.614492

>  <submitter_institution>  (50) 
nan

>  <ref_mols>  (50) 
mArh-x0685_0_A,3Q6Z_0_A

>  <N_constrained_atoms>  (50) 
20.0

>  <ref_url>  (50) 
nan

>  <method>  (50) 
nan

>  <comRMSD>  (50) 
0.396423

>  <N_unconstrained_atoms>  (50) 
6.0

>  <∆∆G>  (50) 
-15.976781

>  <runtime>  (50) 
67.6386

>  <generation_date>  (50) 
nan

$$$$
1SPV_0_A_α-mArh-5dus_0_A_β
     RDKit          3D

 16 16  0  0  0  0  0  0  0  0999 V2000
    1.0240   20.7440   -7.6520 O   0  0  0  0  0  0  0  0  0  0  0  0
   -0.0870   19.5770   -7.7010 S   0  0  0  0  0  0  0  0  0  0  0  0
    0.2590   18.5460   -8.8680 O   0  0  0  0  0  0  0  0  0  0  0  0
   -0.1830   18.8440   -6.2720 O   0  0  0  0  0  0  0  0  0  0  0  0
   -1.6300   20.3350   -8.1490 C   0  0  0  0  0  0  0  0  0  0  0  0
   -1.9290   21.7220   -7.6710 C   0  0  0  0  0  0  0  0  0  0  0  0
   -1.5630   18.1330   -5.8380 P   0  0  0  0  0  0  0  0  0  0  0  0
   -1.0860   16.8650   -4.9960 O   0  0  0  0  0  0  0  0  0  0  0  0
   -2.5940   17.8190   -6.8570 O   0  0  0  0  0  0  0  0  0  0  0  0
   -2.1030   19.0880   -4.6790 O   0  0  0  0  0  0  0  0  0  0  0  0
   -3.3870   21.9600   -7.7190 N   0  0  0  0  0  0  0  0  0  0  0  0
   -3.8710   22.4610   -9.0180 C   0  0  0  0  0  0  0  0  0  0  0  0
   -3.8050   22.8620   -6.6450 C   0  0  0  0  0  0  0  0  0  0  0  0
   -5.3890   22.6560   -9.0330 C   0  0  0  0  0  0  0  0  0  0  0  0
   -5.2790   23.2320   -6.6960 C   0  0  0  0  0  0  0  0  0  0  0  0
   -5.8160   23.5390   -7.9940 O   0  0  0  0  0  0  0  0  0  0  0  0
  2  1  1  0
  2  3  1  0
  2  4  1  0
  2  5  1  0
  5  6  1  0
  4  7  1  0
  7  8  1  0
  7  9  2  0
  7 10  1  0
  6 11  1  0
 11 12  1  0
 11 13  1  0
 12 14  1  0
 13 15  1  0
 14 16  1  0
 15 16  1  0
M  END
>  <%Rank>  (51) 
3.816794

>  <N_hits>  (51) 
2

>  <submitter_name>  (51) 
nan

>  <original SMILES>  (51) 
nan

>  <∆G_unbound>  (51) 
0.69348

>  <∆G_bound>  (51) 
-11.016861

>  <regarded>  (51) 
1SPV_0_A_α,mArh-5dus_0_A_β

>  <ref_pdb>  (51) 
nan

>  <smiles>  (51) 
O=P(O)(O)OS(O)(O)CCN1CCOCC1

>  <submitter_email>  (51) 
nan

>  <disregarded>  (51) 


>  <LE>  (51) 
-0.731896

>  <submitter_institution>  (51) 
nan

>  <ref_mols>  (51) 
1SPV_0_A,mArh-5dus_0_A

>  <N_constrained_atoms>  (51) 
16.0

>  <ref_url>  (51) 
nan

>  <method>  (51) 
nan

>  <comRMSD>  (51) 
0.521841

>  <N_unconstrained_atoms>  (51) 
0.0

>  <∆∆G>  (51) 
-11.710341

>  <runtime>  (51) 
38.524374

>  <generation_date>  (51) 
nan

$$$$
mArh-x0724_0_A_α-mArh-5cb5_J_2_J_β
     RDKit          3D

 26 27  0  0  0  0  0  0  0  0999 V2000
   -8.7660   13.7970    4.2750 N   0  0  0  0  0  0  0  0  0  0  0  0
   -8.7060   13.7050    5.7280 C   0  0  0  0  0  0  0  0  0  0  0  0
   -8.1140   15.0210    3.8250 C   0  0  0  0  0  0  0  0  0  0  0  0
   -7.5540   14.8440    2.4550 C   0  0  0  0  0  0  0  0  0  0  0  0
   -6.2250   14.8760    2.0740 C   0  0  0  0  0  0  0  0  0  0  0  0
   -8.2370   14.6160    1.2420 C   0  0  0  0  0  0  0  0  0  0  0  0
   -7.4140   14.5220    0.1950 N   0  0  0  0  0  0  0  0  0  0  0  0
   -6.1640   14.6910    0.7120 N   0  0  0  0  0  0  0  0  0  0  0  0
   -5.0120   14.6730   -0.1270 C   0  0  0  0  0  0  0  0  0  0  0  0
   -3.7170   14.7890    0.4060 C   0  0  0  0  0  0  0  0  0  0  0  0
   -5.1670   14.5460   -1.5090 C   0  0  0  0  0  0  0  0  0  0  0  0
   -2.5990   14.7780   -0.4480 C   0  0  0  0  0  0  0  0  0  0  0  0
   -4.0590   14.5360   -2.3510 C   0  0  0  0  0  0  0  0  0  0  0  0
   -2.7660   14.6500   -1.8470 C   0  0  0  0  0  0  0  0  0  0  0  0
   -1.5970   14.6340   -2.8260 C   0  0  0  0  0  0  0  0  0  0  0  0
   -1.6700   15.7800   -3.8220 C   0  0  0  0  0  0  0  0  0  0  0  0
   -1.5370   15.5680   -5.2740 C   0  0  0  0  0  0  0  0  0  0  0  0
   -0.7960   16.7320   -5.6430 O   0  0  0  0  0  0  0  0  0  0  0  0
   -1.5430   18.0830   -6.0890 P   0  0  0  0  0  0  0  0  0  0  0  0
   -0.4070   19.0750   -6.5200 O   0  0  0  0  0  0  0  0  0  0  0  0
   -2.6830   17.9130   -7.0110 O   0  0  0  0  0  0  0  0  0  0  0  0
   -1.9830   18.8470   -4.7530 O   0  0  0  0  0  0  0  0  0  0  0  0
   -0.2180   19.8230   -7.8760 P   0  0  0  0  0  0  0  0  0  0  0  0
   -1.6090   20.4160   -8.3520 O   0  0  0  0  0  0  0  0  0  0  0  0
    0.8460   20.8620   -7.8600 O   0  0  0  0  0  0  0  0  0  0  0  0
    0.0740   18.6770   -8.9320 O   0  0  0  0  0  0  0  0  0  0  0  0
  1  2  1  0
  1  3  1  0
  3  4  1  0
  4  5  2  0
  4  6  1  0
  6  7  2  0
  5  8  1  0
  7  8  1  0
  8  9  1  0
  9 10  2  0
  9 11  1  0
 10 12  1  0
 11 13  2  0
 12 14  2  0
 13 14  1  0
 14 15  1  0
 15 16  1  0
 16 17  1  0
 17 18  1  0
 18 19  1  0
 19 20  1  0
 19 21  2  0
 19 22  1  0
 20 23  1  0
 23 24  1  0
 23 25  2  0
 23 26  1  0
M  END
>  <%Rank>  (52) 
3.89313

>  <N_hits>  (52) 
2

>  <submitter_name>  (52) 
nan

>  <original SMILES>  (52) 
nan

>  <∆G_unbound>  (52) 
0.13703

>  <∆G_bound>  (52) 
-12.082284

>  <regarded>  (52) 
mArh-x0724_0_A_α,mArh-5cb5_J_2_J_β

>  <ref_pdb>  (52) 
nan

>  <smiles>  (52) 
CNCc1cnn(-c2ccc(CCCOP(=O)(O)OP(=O)(O)O)cc2)c1

>  <submitter_email>  (52) 
nan

>  <disregarded>  (52) 


>  <LE>  (52) 
-0.469974

>  <submitter_institution>  (52) 
nan

>  <ref_mols>  (52) 
mArh-x0724_0_A,mArh-5cb5_J_2_J

>  <N_constrained_atoms>  (52) 
23.0

>  <ref_url>  (52) 
nan

>  <method>  (52) 
nan

>  <comRMSD>  (52) 
0.464496

>  <N_unconstrained_atoms>  (52) 
3.0

>  <∆∆G>  (52) 
-12.219314

>  <runtime>  (52) 
47.904682

>  <generation_date>  (52) 
nan

$$$$
5CB5_0_G_γ-mArh-x0290_0_A_α
     RDKit          3D

 20 21  0  0  0  0  0  0  0  0999 V2000
   -0.5890   12.4700   -3.3930 O   0  0  0  0  0  0  0  0  0  0  0  0
   -1.1710   13.6900   -3.8330 C   0  0  1  0  0  0  0  0  0  0  0  0
   -1.1880   14.8560   -2.7970 C   0  0  2  0  0  0  0  0  0  0  0  0
   -0.3280   14.2690   -4.9850 C   0  0  2  0  0  0  0  0  0  0  0  0
    0.9800   13.6790   -4.9720 O   0  0  0  0  0  0  0  0  0  0  0  0
   -0.1380   15.7560   -3.2280 O   0  0  0  0  0  0  0  0  0  0  0  0
   -0.2970   15.7640   -4.6460 C   0  0  1  0  0  0  0  0  0  0  0  0
   -1.3260   14.7180   -1.2560 C   0  0  0  0  0  0  0  0  0  0  0  0
    0.7700   16.6290   -5.3030 C   0  0  0  0  0  0  0  0  0  0  0  0
   -0.2460   14.6240   -0.3560 C   0  0  0  0  0  0  0  0  0  0  0  0
   -2.6140   14.7010   -0.6720 C   0  0  0  0  0  0  0  0  0  0  0  0
   -0.5120   14.5290    1.0120 C   0  0  0  0  0  0  0  0  0  0  0  0
   -2.8010   14.6030    0.7060 C   0  0  0  0  0  0  0  0  0  0  0  0
   -4.0570   14.5830    1.3160 N   0  0  0  0  0  0  0  0  0  0  0  0
   -1.7490   14.5190    1.5630 N   0  0  0  0  0  0  0  0  0  0  0  0
   -5.3180   14.4200    0.8370 C   0  0  0  0  0  0  0  0  0  0  0  0
   -5.4780   14.5290   -0.3880 O   0  0  0  0  0  0  0  0  0  0  0  0
   -6.5280   14.0980    1.7100 C   0  0  0  0  0  0  0  0  0  0  0  0
   -7.7460   13.8000    0.9320 N   0  0  0  0  0  0  0  0  0  0  0  0
   -8.5910   14.9730    0.7430 C   0  0  0  0  0  0  0  0  0  0  0  0
  2  1  1  1
  2  3  1  0
  2  4  1  0
  4  5  1  1
  3  6  1  0
  4  7  1  0
  6  7  1  0
  3  8  1  1
  7  9  1  6
  8 10  2  0
  8 11  1  0
 10 12  1  0
 11 13  2  0
 13 14  1  0
 12 15  2  0
 13 15  1  0
 14 16  1  0
 16 17  2  0
 16 18  1  0
 18 19  1  0
 19 20  1  0
M  END
>  <%Rank>  (53) 
3.969466

>  <N_hits>  (53) 
2

>  <submitter_name>  (53) 
nan

>  <original SMILES>  (53) 
nan

>  <∆G_unbound>  (53) 
1.000854

>  <∆G_bound>  (53) 
-6.729037

>  <regarded>  (53) 
5CB5_0_G_γ,mArh-x0290_0_A_α

>  <ref_pdb>  (53) 
nan

>  <smiles>  (53) 
CNCC(=O)Nc1cc(C2OC(C)C(O)C2O)ccn1

>  <submitter_email>  (53) 
nan

>  <disregarded>  (53) 


>  <LE>  (53) 
-0.386495

>  <submitter_institution>  (53) 
nan

>  <ref_mols>  (53) 
5CB5_0_G,mArh-x0290_0_A

>  <N_constrained_atoms>  (53) 
20.0

>  <ref_url>  (53) 
nan

>  <method>  (53) 
nan

>  <comRMSD>  (53) 
0.435779

>  <N_unconstrained_atoms>  (53) 
0.0

>  <∆∆G>  (53) 
-7.729891

>  <runtime>  (53) 
31.558278

>  <generation_date>  (53) 
nan

$$$$
mArh-5cb5_B_0_B_β-mArh-EU0046_0_A_α
     RDKit          3D

 20 20  0  0  0  0  0  0  0  0999 V2000
   -1.5450   20.6080   -8.6120 O   0  0  0  0  0  0  0  0  0  0  0  0
   -0.3160   19.9460   -7.8580 P   0  0  0  0  0  0  0  0  0  0  0  0
   -0.8480   19.5330   -6.4320 O   0  0  0  0  0  0  0  0  0  0  0  0
    0.8590   20.8510   -7.8020 O   0  0  0  0  0  0  0  0  0  0  0  0
   -0.0990   18.6270   -8.7290 O   0  0  0  0  0  0  0  0  0  0  0  0
   -1.6090   18.2100   -6.0600 P   0  0  0  0  0  0  0  0  0  0  0  0
   -0.5710   17.0050   -5.9250 O   0  0  0  0  0  0  0  0  0  0  0  0
   -2.8030   17.9230   -6.8830 O   0  0  0  0  0  0  0  0  0  0  0  0
   -1.9590   18.5020   -4.5440 O   0  0  0  0  0  0  0  0  0  0  0  0
   -0.5490   16.1690   -4.7600 C   0  0  0  0  0  0  0  0  0  0  0  0
   -1.8780   15.4210   -4.5430 C   0  0  0  0  0  0  0  0  0  0  0  0
   -2.0570   15.0330   -3.1210 C   0  0  0  0  0  0  0  0  0  0  0  0
   -2.1600   14.8180   -1.9350 C   0  0  0  0  0  0  0  0  0  0  0  0
   -2.1890   14.7160   -0.5060 C   0  0  0  0  0  0  0  0  0  0  0  0
   -1.0860   14.7830    0.3130 C   0  0  0  0  0  0  0  0  0  0  0  0
   -3.2810   14.5440    0.3780 C   0  0  0  0  0  0  0  0  0  0  0  0
    0.3410   14.9610    0.0300 C   0  0  0  0  0  0  0  0  0  0  0  0
   -4.5730   14.4320    0.0260 N   0  0  0  0  0  0  0  0  0  0  0  0
   -1.5580   14.6500    1.5800 N   0  0  0  0  0  0  0  0  0  0  0  0
   -2.8860   14.5040    1.6460 N   0  0  0  0  0  0  0  0  0  0  0  0
  1  2  1  0
  2  3  1  0
  2  4  2  0
  2  5  1  0
  3  6  1  0
  6  7  1  0
  6  8  2  0
  6  9  1  0
  7 10  1  0
 10 11  1  0
 11 12  1  0
 12 13  3  0
 13 14  1  0
 14 15  2  0
 14 16  1  0
 15 17  1  0
 16 18  1  0
 15 19  1  0
 16 20  2  0
 19 20  1  0
M  END
>  <%Rank>  (54) 
4.045802

>  <N_hits>  (54) 
2

>  <submitter_name>  (54) 
nan

>  <original SMILES>  (54) 
nan

>  <∆G_unbound>  (54) 
1.137064

>  <∆G_bound>  (54) 
-11.57298

>  <regarded>  (54) 
mArh-5cb5_B_0_B_β,mArh-EU0046_0_A_α

>  <ref_pdb>  (54) 
nan

>  <smiles>  (54) 
Cc1[nH]nc(N)c1C#CCCOP(=O)(O)OP(=O)(O)O

>  <submitter_email>  (54) 
nan

>  <disregarded>  (54) 


>  <LE>  (54) 
-0.635502

>  <submitter_institution>  (54) 
nan

>  <ref_mols>  (54) 
mArh-5cb5_B_0_B,mArh-EU0046_0_A

>  <N_constrained_atoms>  (54) 
18.0

>  <ref_url>  (54) 
nan

>  <method>  (54) 
nan

>  <comRMSD>  (54) 
0.467589

>  <N_unconstrained_atoms>  (54) 
2.0

>  <∆∆G>  (54) 
-12.710044

>  <runtime>  (54) 
27.517106

>  <generation_date>  (54) 
nan

$$$$
1HJZ_0_B_α-mArh-x0895_1_A_α
     RDKit          3D

 24 25  0  0  0  0  0  0  0  0999 V2000
    1.2590   20.9340   -7.4980 O   0  0  0  0  0  0  0  0  0  0  0  0
   -0.0320   19.9720   -7.6140 S   0  0  0  0  0  0  0  0  0  0  0  0
    0.1930   18.7930   -8.6840 O   0  0  0  0  0  0  0  0  0  0  0  0
   -0.5510   19.4050   -6.1860 O   0  0  0  0  0  0  0  0  0  0  0  0
   -1.3040   21.0400   -8.2650 C   0  0  0  0  0  0  0  0  0  0  0  0
   -2.0320   21.8090   -7.1910 C   0  0  0  0  0  0  0  0  0  0  0  0
   -0.0650   18.1780   -5.6060 C   0  0  0  0  0  0  0  0  0  0  0  0
   -1.1610   17.6050   -4.6860 C   0  0  0  0  0  0  0  0  0  0  0  0
   -3.4210   22.1910   -7.5110 N   0  0  0  0  0  0  0  0  0  0  0  0
   -0.6700   16.5880   -3.6170 C   0  0  0  0  0  0  0  0  0  0  0  0
   -3.5380   22.6800   -8.8940 C   0  0  0  0  0  0  0  0  0  0  0  0
   -3.8560   23.3260   -6.6790 C   0  0  0  0  0  0  0  0  0  0  0  0
   -1.8360   15.7890   -2.9760 C   0  0  0  0  0  0  0  0  0  0  0  0
   -4.9440   23.1570   -9.2650 C   0  0  0  0  0  0  0  0  0  0  0  0
   -5.2470   23.8440   -7.0330 C   0  0  0  0  0  0  0  0  0  0  0  0
   -1.6190   15.2610   -1.5260 C   0  0  0  0  0  0  0  0  0  0  0  0
   -5.3430   24.2270   -8.4120 O   0  0  0  0  0  0  0  0  0  0  0  0
   -2.8080   15.4740   -0.5650 C   0  0  1  0  0  0  0  0  0  0  0  0
   -4.0310   14.7550   -0.8320 N   0  0  0  0  0  0  0  0  0  0  0  0
   -2.6010   14.9760    0.8830 C   0  0  0  0  0  0  0  0  0  0  0  0
   -1.5570   14.9310    1.5300 O   0  0  0  0  0  0  0  0  0  0  0  0
   -3.8220   14.5920    1.3390 N   0  0  0  0  0  0  0  0  0  0  0  0
   -4.7350   14.6770    0.3480 C   0  0  0  0  0  0  0  0  0  0  0  0
   -5.9490   14.6920    0.4670 O   0  0  0  0  0  0  0  0  0  0  0  0
  2  1  1  0
  2  3  1  0
  2  4  1  0
  2  5  1  0
  5  6  1  0
  4  7  1  0
  7  8  1  0
  6  9  1  0
  8 10  1  0
  9 11  1  0
  9 12  1  0
 10 13  1  0
 11 14  1  0
 12 15  1  0
 13 16  1  0
 14 17  1  0
 15 17  1  0
 18 16  1  6
 18 19  1  0
 18 20  1  0
 20 21  2  0
 20 22  1  0
 19 23  1  0
 22 23  1  0
 23 24  2  0
M  END
>  <%Rank>  (55) 
4.122137

>  <N_hits>  (55) 
2

>  <submitter_name>  (55) 
nan

>  <original SMILES>  (55) 
nan

>  <∆G_unbound>  (55) 
0.599214

>  <∆G_bound>  (55) 
-14.759792

>  <regarded>  (55) 
1HJZ_0_B_α,mArh-x0895_1_A_α

>  <ref_pdb>  (55) 
nan

>  <smiles>  (55) 
O=C1NC(=O)C(CCCCCOS(O)(O)CCN2CCOCC2)N1

>  <submitter_email>  (55) 
nan

>  <disregarded>  (55) 


>  <LE>  (55) 
-0.639959

>  <submitter_institution>  (55) 
nan

>  <ref_mols>  (55) 
1HJZ_0_B,mArh-x0895_1_A

>  <N_constrained_atoms>  (55) 
19.0

>  <ref_url>  (55) 
nan

>  <method>  (55) 
nan

>  <comRMSD>  (55) 
0.414382

>  <N_unconstrained_atoms>  (55) 
5.0

>  <∆∆G>  (55) 
-15.359005

>  <runtime>  (55) 
51.004094

>  <generation_date>  (55) 
nan

$$$$
mArh-x0628_0_A_α-3EW5_0_C_α
     RDKit          3D

 26 26  0  0  0  0  0  0  0  0999 V2000
   -0.9150    9.0520   -7.2950 C   0  0  0  0  0  0  0  0  0  0  0  0
   -0.8270   10.2980   -6.4730 C   0  0  0  0  0  0  0  0  0  0  0  0
   -1.7600   10.6790   -5.5880 N   0  0  0  0  0  0  0  0  0  0  0  0
    0.1220   11.2230   -6.4450 N   0  0  0  0  0  0  0  0  0  0  0  0
   -0.1450   12.1930   -5.5730 N   0  0  0  0  0  0  0  0  0  0  0  0
   -1.3530   11.8330   -5.0330 C   0  0  0  0  0  0  0  0  0  0  0  0
   -2.1160   12.5790   -3.9950 C   0  0  0  0  0  0  0  0  0  0  0  0
    0.7120   13.3520   -5.3060 C   0  0  2  0  0  0  0  0  0  0  0  0
    1.7210   13.0020   -4.2550 C   0  0  0  0  0  0  0  0  0  0  0  0
   -0.0890   14.5940   -4.9590 C   0  0  0  0  0  0  0  0  0  0  0  0
    1.1330   12.3470   -3.0550 C   0  0  0  0  0  0  0  0  0  0  0  0
    0.7130   15.8530   -4.9810 C   0  0  0  0  0  0  0  0  0  0  0  0
    0.5640   11.2360   -3.0490 O   0  0  0  0  0  0  0  0  0  0  0  0
    1.2290   13.0280   -1.8530 O   0  0  0  0  0  0  0  0  0  0  0  0
   -0.1150   17.1080   -4.9220 C   0  0  0  0  0  0  0  0  0  0  0  0
    0.1380   18.1800   -5.9320 C   0  0  0  0  0  0  0  0  0  0  0  0
   -0.8960   19.0340   -6.1960 O   0  0  0  0  0  0  0  0  0  0  0  0
   -0.7830   19.6590   -7.7360 P   0  0  0  0  0  0  0  0  0  0  0  0
   -1.7460   20.8950   -8.2200 O   0  0  0  0  0  0  0  0  0  0  0  0
    0.4100   20.5360   -7.4230 O   0  0  0  0  0  0  0  0  0  0  0  0
    0.1260   18.8450   -8.8300 O   0  0  0  0  0  0  0  0  0  0  0  0
   -2.3990   21.6460   -7.2860 C   0  0  0  0  0  0  0  0  0  0  0  0
   -3.8700   21.8660   -7.6580 C   0  0  2  0  0  0  0  0  0  0  0  0
   -4.0760   23.2300   -8.3020 C   0  0  0  0  0  0  0  0  0  0  0  0
   -4.6920   21.8190   -6.5420 O   0  0  0  0  0  0  0  0  0  0  0  0
   -4.6540   23.0610   -9.5630 O   0  0  0  0  0  0  0  0  0  0  0  0
  1  2  1  0
  2  3  1  0
  2  4  2  0
  4  5  1  0
  3  6  2  0
  5  6  1  0
  6  7  1  0
  5  8  1  0
  8  9  1  1
  8 10  1  0
  9 11  1  0
 10 12  1  0
 11 13  2  0
 11 14  1  0
 12 15  1  0
 15 16  1  0
 16 17  1  0
 17 18  1  0
 18 19  1  0
 18 20  1  0
 18 21  1  0
 19 22  1  0
 22 23  1  0
 23 24  1  0
 23 25  1  1
 24 26  1  0
M  CHG  1  21  -1
M  END
>  <%Rank>  (56) 
4.198473

>  <N_hits>  (56) 
2

>  <submitter_name>  (56) 
nan

>  <original SMILES>  (56) 
nan

>  <∆G_unbound>  (56) 
1.648128

>  <∆G_bound>  (56) 
-9.082829

>  <regarded>  (56) 
mArh-x0628_0_A_α,3EW5_0_C_α

>  <ref_pdb>  (56) 
nan

>  <smiles>  (56) 
Cc1nc(C)n(C(CCCCO[PH]([O-])(O)OC[C@@H](O)CO)CC(=O)O)n1

>  <submitter_email>  (56) 
nan

>  <disregarded>  (56) 


>  <LE>  (56) 
-0.412729

>  <submitter_institution>  (56) 
nan

>  <ref_mols>  (56) 
mArh-x0628_0_A,3EW5_0_C

>  <N_constrained_atoms>  (56) 
22.0

>  <ref_url>  (56) 
nan

>  <method>  (56) 
nan

>  <comRMSD>  (56) 
0.398136

>  <N_unconstrained_atoms>  (56) 
4.0

>  <∆∆G>  (56) 
-10.730958

>  <runtime>  (56) 
43.793403

>  <generation_date>  (56) 
nan

$$$$
mArh-5cb3_0_A_γ-mArh-6woj_D_0_D_β
     RDKit          3D

 16 16  0  0  0  0  0  0  0  0999 V2000
   -1.7880   12.8340   -4.1280 O   0  0  0  0  0  0  0  0  0  0  0  0
   -0.5430   13.4550   -3.8650 C   0  0  2  0  0  0  0  0  0  0  0  0
   -0.5900   14.4660   -2.7100 C   0  0  0  0  0  0  0  0  0  0  0  0
   -0.0390   14.2780   -5.0430 C   0  0  2  0  0  0  0  0  0  0  0  0
    1.3870   14.1020   -5.0500 O   0  0  0  0  0  0  0  0  0  0  0  0
   -0.1310   15.7250   -3.2290 O   0  0  0  0  0  0  0  0  0  0  0  0
   -0.5050   15.6690   -4.6100 C   0  0  1  0  0  0  0  0  0  0  0  0
    0.0570   16.8850   -5.3200 C   0  0  0  0  0  0  0  0  0  0  0  0
   -1.1850   18.1470   -5.6910 P   0  0  2  0  0  0  0  0  0  0  0  0
   -0.4200   19.3670   -6.3010 O   0  0  0  0  0  0  0  0  0  0  0  0
   -1.8520   18.5940   -4.4500 O   0  0  0  0  0  0  0  0  0  0  0  0
   -2.2760   17.6340   -6.7710 O   0  0  0  0  0  0  0  0  0  0  0  0
   -0.0510   19.9440   -7.6940 P   0  0  0  0  0  0  0  0  0  0  0  0
   -1.4300   20.5590   -8.1950 O   0  0  0  0  0  0  0  0  0  0  0  0
    1.0940   20.8980   -7.6840 O   0  0  0  0  0  0  0  0  0  0  0  0
    0.0700   18.7030   -8.7060 O   0  0  0  0  0  0  0  0  0  0  0  0
  2  1  1  6
  2  3  1  0
  2  4  1  0
  4  5  1  1
  3  6  1  0
  4  7  1  0
  6  7  1  0
  7  8  1  6
  8  9  1  0
  9 10  1  0
  9 11  2  0
  9 12  1  6
 10 13  1  0
 13 14  1  0
 13 15  2  0
 13 16  1  0
M  END
>  <%Rank>  (57) 
4.274809

>  <N_hits>  (57) 
2

>  <submitter_name>  (57) 
nan

>  <original SMILES>  (57) 
nan

>  <∆G_unbound>  (57) 
1.057928

>  <∆G_bound>  (57) 
-9.17868

>  <regarded>  (57) 
mArh-5cb3_0_A_γ,mArh-6woj_D_0_D_β

>  <ref_pdb>  (57) 
nan

>  <smiles>  (57) 
O=P(O)(O)OP(=O)(O)CC1OCC(O)C1O

>  <submitter_email>  (57) 
nan

>  <disregarded>  (57) 


>  <LE>  (57) 
-0.639788

>  <submitter_institution>  (57) 
nan

>  <ref_mols>  (57) 
mArh-5cb3_0_A,mArh-6woj_D_0_D

>  <N_constrained_atoms>  (57) 
16.0

>  <ref_url>  (57) 
nan

>  <method>  (57) 
nan

>  <comRMSD>  (57) 
0.484299

>  <N_unconstrained_atoms>  (57) 
0.0

>  <∆∆G>  (57) 
-10.236608

>  <runtime>  (57) 
30.26469

>  <generation_date>  (57) 
nan

$$$$
mArh-6woj_C_0_C_α-mArh-6woj_A_0_A_β
     RDKit          3D

 17 17  0  0  0  0  0  0  0  0999 V2000
   -1.5800   21.4900   -7.1720 C   0  0  0  0  0  0  0  0  0  0  0  0
   -0.3590   20.2370   -7.6390 P   0  0  2  0  0  0  0  0  0  0  0  0
   -0.2080   19.1060   -6.5180 O   0  0  0  0  0  0  0  0  0  0  0  0
   -2.8210   21.8720   -7.9890 C   0  0  1  0  0  0  0  0  0  0  0  0
    0.9700   20.8550   -7.8700 O   0  0  0  0  0  0  0  0  0  0  0  0
   -0.8740   19.2810   -8.8140 O   0  0  0  0  0  0  0  0  0  0  0  0
   -3.9360   21.1470   -7.4670 O   0  0  0  0  0  0  0  0  0  0  0  0
   -3.2950   23.3420   -7.8300 C   0  0  1  0  0  0  0  0  0  0  0  0
   -4.1400   23.7940   -8.8990 O   0  0  0  0  0  0  0  0  0  0  0  0
   -1.3670   18.3300   -5.7570 P   0  0  0  0  0  0  0  0  0  0  0  0
   -4.3960   21.8380   -6.2990 C   0  0  1  0  0  0  0  0  0  0  0  0
   -4.0870   23.3330   -6.5080 C   0  0  2  0  0  0  0  0  0  0  0  0
   -5.7790   21.6090   -6.0800 O   0  0  0  0  0  0  0  0  0  0  0  0
   -5.3300   24.0620   -6.6210 O   0  0  0  0  0  0  0  0  0  0  0  0
   -0.7470   16.8940   -5.4270 O   0  0  0  0  0  0  0  0  0  0  0  0
   -1.9350   19.0310   -4.5900 O   0  0  0  0  0  0  0  0  0  0  0  0
   -2.4620   17.9430   -6.8580 O   0  0  0  0  0  0  0  0  0  0  0  0
  1  2  1  0
  2  3  1  0
  4  1  1  1
  2  5  2  0
  2  6  1  6
  4  7  1  0
  4  8  1  0
  8  9  1  6
  3 10  1  0
  7 11  1  0
  8 12  1  0
 11 12  1  0
 11 13  1  6
 12 14  1  6
 10 15  1  0
 10 16  2  0
 10 17  1  0
M  END
>  <%Rank>  (58) 
4.351145

>  <N_hits>  (58) 
2

>  <submitter_name>  (58) 
nan

>  <original SMILES>  (58) 
nan

>  <∆G_unbound>  (58) 
1.703844

>  <∆G_bound>  (58) 
-13.155046

>  <regarded>  (58) 
mArh-6woj_C_0_C_α,mArh-6woj_A_0_A_β

>  <ref_pdb>  (58) 
nan

>  <smiles>  (58) 
O=P(O)(O)OP(=O)(O)CC1OC(O)C(O)C1O

>  <submitter_email>  (58) 
nan

>  <disregarded>  (58) 


>  <LE>  (58) 
-0.874052

>  <submitter_institution>  (58) 
nan

>  <ref_mols>  (58) 
mArh-6woj_C_0_C,mArh-6woj_A_0_A

>  <N_constrained_atoms>  (58) 
17.0

>  <ref_url>  (58) 
nan

>  <method>  (58) 
nan

>  <comRMSD>  (58) 
0.624503

>  <N_unconstrained_atoms>  (58) 
0.0

>  <∆∆G>  (58) 
-14.85889

>  <runtime>  (58) 
38.096411

>  <generation_date>  (58) 
nan

$$$$
mArh-EU0844_0_A_α-3Q6Z_0_A_β
     RDKit          3D

 28 29  0  0  0  0  0  0  0  0999 V2000
   -9.7270   14.5170    0.6880 C   0  0  0  0  0  0  0  0  0  0  0  0
   -8.2680   14.6840    0.9650 C   0  0  0  0  0  0  0  0  0  0  0  0
   -7.4060   14.6690   -0.1150 N   0  0  0  0  0  0  0  0  0  0  0  0
   -7.7180   14.8590    2.1970 C   0  0  0  0  0  0  0  0  0  0  0  0
   -8.4720   14.9230    3.4250 C   0  0  0  0  0  0  0  0  0  0  0  0
   -6.0720   14.8240   -0.0140 C   0  0  0  0  0  0  0  0  0  0  0  0
   -6.3210   15.0030    2.3250 C   0  0  0  0  0  0  0  0  0  0  0  0
   -9.5790   15.5890    3.3730 O   0  0  0  0  0  0  0  0  0  0  0  0
   -8.0810   14.3680    4.6360 N   0  0  0  0  0  0  0  0  0  0  0  0
   -5.5190   14.9880    1.2310 C   0  0  0  0  0  0  0  0  0  0  0  0
   -5.2200   14.8340   -1.1330 C   0  0  0  0  0  0  0  0  0  0  0  0
   -8.5650   14.9780    5.9040 C   0  0  0  0  0  0  0  0  0  0  0  0
   -3.8630   15.0020   -1.0610 C   0  0  0  0  0  0  0  0  0  0  0  0
   -4.1510   15.1490    1.3340 C   0  0  0  0  0  0  0  0  0  0  0  0
   -2.9710   15.0390   -2.0700 O   0  0  0  0  0  0  0  0  0  0  0  0
   -3.3450   15.1590    0.2340 C   0  0  0  0  0  0  0  0  0  0  0  0
   -1.6040   15.1770   -2.1050 C   0  0  0  0  0  0  0  0  0  0  0  0
   -0.9830   16.1190   -3.1500 C   0  0  0  0  0  0  0  0  0  0  0  0
   -2.0730   16.5910   -4.1100 C   0  0  0  0  0  0  0  0  0  0  0  0
   -1.8160   17.8880   -4.5070 O   0  0  0  0  0  0  0  0  0  0  0  0
   -1.3470   17.8710   -6.0330 P   0  0  0  0  0  0  0  0  0  0  0  0
   -0.7540   19.2790   -6.3220 O   0  0  0  0  0  0  0  0  0  0  0  0
    0.1680   17.2500   -6.3690 O   0  0  0  0  0  0  0  0  0  0  0  0
   -2.4420   18.0720   -7.2190 O   0  0  0  0  0  0  0  0  0  0  0  0
   -0.5690   19.8520   -7.7780 P   0  0  0  0  0  0  0  0  0  0  0  0
   -1.9530   20.7030   -7.8060 O   0  0  0  0  0  0  0  0  0  0  0  0
   -0.4290   18.3960   -8.4570 O   0  0  0  0  0  0  0  0  0  0  0  0
    0.8540   20.6390   -7.3900 O   0  0  0  0  0  0  0  0  0  0  0  0
  1  2  1  0
  2  3  2  0
  2  4  1  0
  4  5  1  0
  3  6  1  0
  4  7  2  0
  5  8  2  0
  5  9  1  0
  6 10  2  0
  7 10  1  0
  6 11  1  0
  9 12  1  0
 11 13  2  0
 10 14  1  0
 13 15  1  0
 13 16  1  0
 14 16  2  0
 15 17  1  0
 17 18  1  0
 18 19  1  0
 19 20  1  0
 20 21  1  0
 21 22  1  0
 21 23  1  0
 21 24  1  0
 22 25  1  0
 25 26  1  0
 25 27  1  0
 25 28  1  0
M  CHG  1  27  -1
M  END
>  <%Rank>  (59) 
4.427481

>  <N_hits>  (59) 
2

>  <submitter_name>  (59) 
nan

>  <original SMILES>  (59) 
nan

>  <∆G_unbound>  (59) 
1.005841

>  <∆G_bound>  (59) 
-9.250568

>  <regarded>  (59) 
mArh-EU0844_0_A_α,3Q6Z_0_A_β

>  <ref_pdb>  (59) 
nan

>  <smiles>  (59) 
CNC(=O)c1cc2ccc(OCCCO[PH](O)(O)O[PH]([O-])(O)O)cc2nc1C

>  <submitter_email>  (59) 
nan

>  <disregarded>  (59) 


>  <LE>  (59) 
-0.3663

>  <submitter_institution>  (59) 
nan

>  <ref_mols>  (59) 
mArh-EU0844_0_A,3Q6Z_0_A

>  <N_constrained_atoms>  (59) 
25.0

>  <ref_url>  (59) 
nan

>  <method>  (59) 
nan

>  <comRMSD>  (59) 
0.454831

>  <N_unconstrained_atoms>  (59) 
3.0

>  <∆∆G>  (59) 
-10.256409

>  <runtime>  (59) 
55.654299

>  <generation_date>  (59) 
nan

$$$$
mArh-EU0960_0_A_α-mArh-5cms_K_10_K_γ
     RDKit          3D

 25 28  0  0  0  0  0  0  0  0999 V2000
   -2.3830    9.9300   -4.9910 C   0  0  0  0  0  0  0  0  0  0  0  0
   -1.2170   10.3000   -5.8460 C   0  0  0  0  0  0  0  0  0  0  0  0
   -0.8500    9.4960   -6.9410 N   0  0  0  0  0  0  0  0  0  0  0  0
   -0.4060   11.3620   -5.7090 C   0  0  0  0  0  0  0  0  0  0  0  0
   -1.8960    8.8390   -7.7430 C   0  0  0  0  0  0  0  0  0  0  0  0
   -0.6000   12.3090   -4.6470 N   0  0  0  0  0  0  0  0  0  0  0  0
    0.5980   11.2630   -6.8190 C   0  0  0  0  0  0  0  0  0  0  0  0
    0.0900   10.2710   -7.6890 N   0  0  0  0  0  0  0  0  0  0  0  0
    1.6190   11.9190   -6.8790 O   0  0  0  0  0  0  0  0  0  0  0  0
    0.5030   12.0610   -3.3190 S   0  0  0  0  0  0  0  0  0  0  0  0
    0.8230    9.6440   -8.7360 C   0  0  0  0  0  0  0  0  0  0  0  0
   -0.4960   13.7710   -4.7410 C   0  0  1  0  0  0  0  0  0  0  0  0
    0.6930   10.6420   -3.1950 O   0  0  0  0  0  0  0  0  0  0  0  0
    0.1430   12.8630   -2.1810 O   0  0  0  0  0  0  0  0  0  0  0  0
    1.7930   12.9440   -4.2540 C   0  0  0  0  0  0  0  0  0  0  0  0
    1.2450   10.3480   -9.8730 C   0  0  0  0  0  0  0  0  0  0  0  0
    1.1450    8.2820   -8.6570 C   0  0  0  0  0  0  0  0  0  0  0  0
   -0.9690   14.6980   -3.6350 C   0  0  0  0  0  0  0  0  0  0  0  0
    0.9940   14.0850   -4.9110 C   0  0  2  0  0  0  0  0  0  0  0  0
    1.9640    9.7130  -10.8920 C   0  0  0  0  0  0  0  0  0  0  0  0
    1.8660    7.6460   -9.6740 C   0  0  0  0  0  0  0  0  0  0  0  0
    0.1790   15.5100   -3.2690 O   0  0  0  0  0  0  0  0  0  0  0  0
    1.0690   15.5120   -4.4030 C   0  0  2  0  0  0  0  0  0  0  0  0
    0.6290   16.6010   -5.3610 C   0  0  0  0  0  0  0  0  0  0  0  0
    2.2770    8.3620  -10.7920 C   0  0  0  0  0  0  0  0  0  0  0  0
  1  2  1  0
  2  3  1  0
  2  4  2  0
  3  5  1  0
  4  6  1  0
  4  7  1  0
  3  8  1  0
  7  8  1  0
  7  9  2  0
 10  6  1  0
  8 11  1  0
  6 12  1  0
 10 13  2  0
 10 14  2  0
 10 15  1  0
 11 16  2  0
 11 17  1  0
 12 18  1  1
 12 19  1  0
 19 15  1  1
 16 20  1  0
 17 21  2  0
 18 22  1  0
 19 23  1  0
 22 23  1  0
 23 24  1  6
 20 25  2  0
 21 25  1  0
M  END
>  <%Rank>  (60) 
4.503817

>  <N_hits>  (60) 
2

>  <submitter_name>  (60) 
nan

>  <original SMILES>  (60) 
nan

>  <∆G_unbound>  (60) 
1.220578

>  <∆G_bound>  (60) 
-6.225438

>  <regarded>  (60) 
mArh-EU0960_0_A_α,mArh-5cms_K_10_K_γ

>  <ref_pdb>  (60) 
nan

>  <smiles>  (60) 
Cc1c(N2C3COC(C)C3CS2(=O)=O)c(=O)n(-c2ccccc2)n1C

>  <submitter_email>  (60) 
nan

>  <disregarded>  (60) 


>  <LE>  (60) 
-0.297841

>  <submitter_institution>  (60) 
nan

>  <ref_mols>  (60) 
mArh-EU0960_0_A,mArh-5cms_K_10_K

>  <N_constrained_atoms>  (60) 
25.0

>  <ref_url>  (60) 
nan

>  <method>  (60) 
nan

>  <comRMSD>  (60) 
0.480905

>  <N_unconstrained_atoms>  (60) 
0.0

>  <∆∆G>  (60) 
-7.446016

>  <runtime>  (60) 
28.478663

>  <generation_date>  (60) 
nan

$$$$
5CMS_0_H_γ-mArh-6woj_A_0_A_β
     RDKit          3D

 16 16  0  0  0  0  0  0  0  0999 V2000
   -1.8630   12.8380   -4.0110 O   0  0  0  0  0  0  0  0  0  0  0  0
   -0.5680   13.3800   -3.8570 C   0  0  2  0  0  0  0  0  0  0  0  0
   -0.4420   14.3250   -2.6570 C   0  0  0  0  0  0  0  0  0  0  0  0
   -0.1620   14.2490   -5.0370 C   0  0  2  0  0  0  0  0  0  0  0  0
    1.2590   14.0950   -5.1720 O   0  0  0  0  0  0  0  0  0  0  0  0
   -0.0360   15.6050   -3.1660 O   0  0  0  0  0  0  0  0  0  0  0  0
   -0.5600   15.6180   -4.5020 C   0  0  1  0  0  0  0  0  0  0  0  0
    0.0040   16.8190   -5.2160 C   0  0  0  0  0  0  0  0  0  0  0  0
   -1.1570   18.1260   -5.6290 P   0  0  2  0  0  0  0  0  0  0  0  0
   -0.2160   19.1880   -6.2850 O   0  0  0  0  0  0  0  0  0  0  0  0
   -1.8030   18.7200   -4.4350 O   0  0  0  0  0  0  0  0  0  0  0  0
   -2.2450   17.6380   -6.7160 O   0  0  0  0  0  0  0  0  0  0  0  0
   -0.0010   19.8540   -7.6580 P   0  0  0  0  0  0  0  0  0  0  0  0
   -1.4510   20.3990   -8.0340 O   0  0  0  0  0  0  0  0  0  0  0  0
    1.0840   20.8720   -7.6870 O   0  0  0  0  0  0  0  0  0  0  0  0
    0.1470   18.6380   -8.6900 O   0  0  0  0  0  0  0  0  0  0  0  0
  2  1  1  6
  2  3  1  0
  2  4  1  0
  4  5  1  1
  3  6  1  0
  4  7  1  0
  6  7  1  0
  7  8  1  6
  8  9  1  0
  9 10  1  0
  9 11  2  0
  9 12  1  6
 10 13  1  0
 13 14  1  0
 13 15  2  0
 13 16  1  0
M  END
>  <%Rank>  (61) 
4.580153

>  <N_hits>  (61) 
2

>  <submitter_name>  (61) 
nan

>  <original SMILES>  (61) 
nan

>  <∆G_unbound>  (61) 
1.057928

>  <∆G_bound>  (61) 
-9.279877

>  <regarded>  (61) 
5CMS_0_H_γ,mArh-6woj_A_0_A_β

>  <ref_pdb>  (61) 
nan

>  <smiles>  (61) 
O=P(O)(O)OP(=O)(O)CC1OCC(O)C1O

>  <submitter_email>  (61) 
nan

>  <disregarded>  (61) 


>  <LE>  (61) 
-0.646113

>  <submitter_institution>  (61) 
nan

>  <ref_mols>  (61) 
5CMS_0_H,mArh-6woj_A_0_A

>  <N_constrained_atoms>  (61) 
16.0

>  <ref_url>  (61) 
nan

>  <method>  (61) 
nan

>  <comRMSD>  (61) 
0.488712

>  <N_unconstrained_atoms>  (61) 
0.0

>  <∆∆G>  (61) 
-10.337805

>  <runtime>  (61) 
29.046967

>  <generation_date>  (61) 
nan

$$$$
mArh-6mea_B_0_B_β-5CB5_0_I_δ
     RDKit          3D

 21 22  0  0  0  0  0  0  0  0999 V2000
   -1.5900   20.7240   -8.4460 O   0  0  0  0  0  0  0  0  0  0  0  0
   -0.3870   19.9910   -7.7090 P   0  0  0  0  0  0  0  0  0  0  0  0
   -0.9610   19.5600   -6.2880 O   0  0  0  0  0  0  0  0  0  0  0  0
    0.8110   20.8690   -7.6620 O   0  0  0  0  0  0  0  0  0  0  0  0
   -0.2070   18.6940   -8.6350 O   0  0  0  0  0  0  0  0  0  0  0  0
   -1.5500   18.1320   -5.9800 P   0  0  2  0  0  0  0  0  0  0  0  0
   -0.2600   17.2180   -6.1360 O   0  0  0  0  0  0  0  0  0  0  0  0
   -2.6690   17.7160   -6.8600 O   0  0  0  0  0  0  0  0  0  0  0  0
   -1.7860   17.9860   -4.4140 O   0  0  0  0  0  0  0  0  0  0  0  0
   -1.4820   16.7050   -3.8780 C   0  0  0  0  0  0  0  0  0  0  0  0
   -2.7050   15.7840   -3.8630 C   0  0  0  0  0  0  0  0  0  0  0  0
   -2.8730   14.8290   -2.6740 C   0  0  1  0  0  0  0  0  0  0  0  0
   -1.5830   14.3030   -2.2120 N   0  0  0  0  0  0  0  0  0  0  0  0
   -3.5850   15.3770   -1.5050 N   0  0  0  0  0  0  0  0  0  0  0  0
   -1.4450   14.9140   -0.9200 C   0  0  1  0  0  0  0  0  0  0  0  0
   -2.8480   14.7780   -0.3910 C   0  0  1  0  0  0  0  0  0  0  0  0
   -0.4780   14.2080   -0.1370 N   0  0  0  0  0  0  0  0  0  0  0  0
   -2.8090   15.4940    0.9430 C   0  0  1  0  0  0  0  0  0  0  0  0
   -4.0700   15.4850    1.6720 N   0  0  0  0  0  0  0  0  0  0  0  0
   -0.4650   14.8300    1.1640 C   0  0  0  0  0  0  0  0  0  0  0  0
   -1.8030   14.8910    1.7590 N   0  0  0  0  0  0  0  0  0  0  0  0
  1  2  1  0
  2  3  1  0
  2  4  2  0
  2  5  1  0
  3  6  1  0
  6  7  1  6
  6  8  2  0
  6  9  1  0
  9 10  1  0
 10 11  1  0
 12 11  1  6
 12 13  1  0
 12 14  1  0
 15 13  1  6
 16 14  1  6
 15 16  1  0
 15 17  1  0
 16 18  1  0
 18 19  1  1
 17 20  1  0
 18 21  1  0
 20 21  1  0
M  END
>  <%Rank>  (62) 
4.656489

>  <N_hits>  (62) 
2

>  <submitter_name>  (62) 
nan

>  <original SMILES>  (62) 
nan

>  <∆G_unbound>  (62) 
4.831508

>  <∆G_bound>  (62) 
-9.898196

>  <regarded>  (62) 
mArh-6mea_B_0_B_β,5CB5_0_I_δ

>  <ref_pdb>  (62) 
nan

>  <smiles>  (62) 
NC1NCNC2NC(CCOP(=O)(O)OP(=O)(O)O)NC12

>  <submitter_email>  (62) 
nan

>  <disregarded>  (62) 


>  <LE>  (62) 
-0.701415

>  <submitter_institution>  (62) 
nan

>  <ref_mols>  (62) 
mArh-6mea_B_0_B,5CB5_0_I

>  <N_constrained_atoms>  (62) 
19.0

>  <ref_url>  (62) 
nan

>  <method>  (62) 
nan

>  <comRMSD>  (62) 
0.528202

>  <N_unconstrained_atoms>  (62) 
2.0

>  <∆∆G>  (62) 
-14.729705

>  <runtime>  (62) 
30.819746

>  <generation_date>  (62) 
nan

$$$$
mArh-x0852_0_B_α-mArh-x0969_0_A_α
     RDKit          3D

 20 22  0  0  0  0  0  0  0  0999 V2000
   -9.5860   17.3300    7.3330 N   0  0  0  0  0  0  0  0  0  0  0  0
   -9.3960   16.9120    6.2640 C   0  0  0  0  0  0  0  0  0  0  0  0
   -9.2230   16.4700    4.9100 C   0  0  0  0  0  0  0  0  0  0  0  0
   -8.1930   15.5990    4.5020 C   0  0  0  0  0  0  0  0  0  0  0  0
  -10.1370   16.9460    3.9640 C   0  0  0  0  0  0  0  0  0  0  0  0
   -7.3040   15.1330    5.4390 O   0  0  0  0  0  0  0  0  0  0  0  0
   -8.0810   15.2200    3.1330 C   0  0  0  0  0  0  0  0  0  0  0  0
  -10.0240   16.5580    2.6390 C   0  0  0  0  0  0  0  0  0  0  0  0
  -11.2380   17.1780    1.3320 Br  0  0  0  0  0  0  0  0  0  0  0  0
   -7.0630   14.3730    2.5900 N   0  0  0  0  0  0  0  0  0  0  0  0
   -9.0190   15.7120    2.2320 C   0  0  0  0  0  0  0  0  0  0  0  0
   -6.6830   14.5340    1.2670 C   0  0  0  0  0  0  0  0  0  0  0  0
   -7.5550   14.4830    0.2820 N   0  0  0  0  0  0  0  0  0  0  0  0
   -5.4120   14.7710    0.7060 N   0  0  0  0  0  0  0  0  0  0  0  0
   -6.9240   14.6780   -0.9150 N   0  0  0  0  0  0  0  0  0  0  0  0
   -5.6530   14.8470   -0.6690 C   0  0  0  0  0  0  0  0  0  0  0  0
   -4.1260   14.9220    1.2380 C   0  0  0  0  0  0  0  0  0  0  0  0
   -4.5600   15.0750   -1.5430 C   0  0  0  0  0  0  0  0  0  0  0  0
   -3.0900   15.1320    0.4050 C   0  0  0  0  0  0  0  0  0  0  0  0
   -3.3310   15.2040   -1.0280 C   0  0  0  0  0  0  0  0  0  0  0  0
  1  2  3  0
  2  3  1  0
  3  4  2  0
  3  5  1  0
  4  6  1  0
  4  7  1  0
  5  8  2  0
  8  9  1  0
  7 10  1  0
  7 11  2  0
  8 11  1  0
 10 12  1  0
 12 13  2  0
 12 14  1  0
 13 15  1  0
 14 16  1  0
 15 16  2  0
 14 17  1  0
 16 18  1  0
 17 19  2  0
 18 20  2  0
 19 20  1  0
M  END
>  <%Rank>  (63) 
4.732824

>  <N_hits>  (63) 
2

>  <submitter_name>  (63) 
nan

>  <original SMILES>  (63) 
nan

>  <∆G_unbound>  (63) 
0.20527

>  <∆G_bound>  (63) 
-7.618711

>  <regarded>  (63) 
mArh-x0852_0_B_α,mArh-x0969_0_A_α

>  <ref_pdb>  (63) 
nan

>  <smiles>  (63) 
N#Cc1cc(Br)cc(Nc2nnc3ccccn23)c1O

>  <submitter_email>  (63) 
nan

>  <disregarded>  (63) 


>  <LE>  (63) 
-0.391199

>  <submitter_institution>  (63) 
nan

>  <ref_mols>  (63) 
mArh-x0852_0_B,mArh-x0969_0_A

>  <N_constrained_atoms>  (63) 
20.0

>  <ref_url>  (63) 
nan

>  <method>  (63) 
nan

>  <comRMSD>  (63) 
0.446035

>  <N_unconstrained_atoms>  (63) 
0.0

>  <∆∆G>  (63) 
-7.823982

>  <runtime>  (63) 
23.648908

>  <generation_date>  (63) 
nan

$$$$
5CB5_0_E_γ-6WOJ_0_C_β
     RDKit          3D

 16 16  0  0  0  0  0  0  0  0999 V2000
   -0.7670   12.3730   -4.0260 O   0  0  0  0  0  0  0  0  0  0  0  0
   -1.0680   13.7260   -4.1190 C   0  0  1  0  0  0  0  0  0  0  0  0
   -0.7270   14.5140   -2.8540 C   0  0  0  0  0  0  0  0  0  0  0  0
   -0.2180   14.4230   -5.1300 C   0  0  2  0  0  0  0  0  0  0  0  0
    1.1070   14.0400   -4.9020 O   0  0  0  0  0  0  0  0  0  0  0  0
   -0.1590   15.7200   -3.3270 O   0  0  0  0  0  0  0  0  0  0  0  0
   -0.5570   15.7710   -4.6470 C   0  0  1  0  0  0  0  0  0  0  0  0
   -0.0750   17.0230   -5.3790 C   0  0  0  0  0  0  0  0  0  0  0  0
   -1.4130   18.0920   -5.7170 P   0  0  0  0  0  0  0  0  0  0  0  0
   -0.6720   19.3610   -6.1310 O   0  0  0  0  0  0  0  0  0  0  0  0
   -1.9150   19.0910   -4.4640 O   0  0  0  0  0  0  0  0  0  0  0  0
   -2.3370   18.0800   -7.0300 O   0  0  0  0  0  0  0  0  0  0  0  0
    0.1020   19.6540   -7.4880 P   0  0  0  0  0  0  0  0  0  0  0  0
   -1.0310   20.5080   -8.0690 O   0  0  0  0  0  0  0  0  0  0  0  0
    1.1410   20.9790   -7.6080 O   0  0  0  0  0  0  0  0  0  0  0  0
    0.0700   18.5450   -8.7000 O   0  0  0  0  0  0  0  0  0  0  0  0
  2  1  1  1
  2  3  1  0
  2  4  1  0
  4  5  1  1
  3  6  1  0
  4  7  1  0
  6  7  1  0
  7  8  1  6
  8  9  1  0
  9 10  1  0
  9 11  1  0
  9 12  1  0
 10 13  1  0
 13 14  1  0
 13 15  1  0
 13 16  1  0
M  CHG  2  11  -1  15  -1
M  END
>  <%Rank>  (64) 
4.80916

>  <N_hits>  (64) 
2

>  <submitter_name>  (64) 
nan

>  <original SMILES>  (64) 
nan

>  <∆G_unbound>  (64) 
0.683631

>  <∆G_bound>  (64) 
-7.636813

>  <regarded>  (64) 
5CB5_0_E_γ,6WOJ_0_C_β

>  <ref_pdb>  (64) 
nan

>  <smiles>  (64) 
[O-][PH](O)(O)O[PH]([O-])(O)CC1OCC(O)C1O

>  <submitter_email>  (64) 
nan

>  <disregarded>  (64) 


>  <LE>  (64) 
-0.520028

>  <submitter_institution>  (64) 
nan

>  <ref_mols>  (64) 
5CB5_0_E,6WOJ_0_C

>  <N_constrained_atoms>  (64) 
16.0

>  <ref_url>  (64) 
nan

>  <method>  (64) 
nan

>  <comRMSD>  (64) 
0.427994

>  <N_unconstrained_atoms>  (64) 
0.0

>  <∆∆G>  (64) 
-8.320445

>  <runtime>  (64) 
27.429589

>  <generation_date>  (64) 
nan

$$$$
2FAV_0_B_δ-mArh-5cb5_L_0_L_β
     RDKit          3D

 21 22  0  0  0  0  0  0  0  0999 V2000
   -4.3340   15.0860    1.2970 N   0  0  0  0  0  0  0  0  0  0  0  0
   -2.9690   15.0990    0.8190 C   0  0  2  0  0  0  0  0  0  0  0  0
   -2.8510   14.4770   -0.5710 C   0  0  2  0  0  0  0  0  0  0  0  0
   -2.1560   14.3000    1.7320 N   0  0  0  0  0  0  0  0  0  0  0  0
   -1.3750   14.5170   -0.8330 C   0  0  2  0  0  0  0  0  0  0  0  0
   -3.3990   15.2250   -1.7440 N   0  0  0  0  0  0  0  0  0  0  0  0
   -0.7370   14.1680    1.3380 C   0  0  0  0  0  0  0  0  0  0  0  0
   -1.3040   14.3450   -2.2470 N   0  0  0  0  0  0  0  0  0  0  0  0
   -2.1700   15.4690   -2.4970 C   0  0  1  0  0  0  0  0  0  0  0  0
   -0.6230   13.6380   -0.0110 N   0  0  0  0  0  0  0  0  0  0  0  0
   -2.2850   15.8880   -3.9430 C   0  0  0  0  0  0  0  0  0  0  0  0
   -1.2000   16.9300   -4.1700 C   0  0  0  0  0  0  0  0  0  0  0  0
   -1.7800   18.1240   -4.6490 O   0  0  0  0  0  0  0  0  0  0  0  0
   -1.5890   18.3230   -6.1990 P   0  0  1  0  0  0  0  0  0  0  0  0
   -0.9330   19.6950   -6.5350 O   0  0  0  0  0  0  0  0  0  0  0  0
   -0.3140   17.3830   -6.3910 O   0  0  0  0  0  0  0  0  0  0  0  0
   -2.6800   17.8550   -7.0560 O   0  0  0  0  0  0  0  0  0  0  0  0
   -0.1710   20.0500   -7.8510 P   0  0  0  0  0  0  0  0  0  0  0  0
   -1.2890   20.7380   -8.7490 O   0  0  0  0  0  0  0  0  0  0  0  0
    1.0370   20.9300   -7.6760 O   0  0  0  0  0  0  0  0  0  0  0  0
    0.1090   18.7020   -8.6770 O   0  0  0  0  0  0  0  0  0  0  0  0
  2  1  1  1
  2  3  1  0
  2  4  1  0
  3  5  1  0
  3  6  1  6
  4  7  1  0
  5  8  1  6
  6  9  1  0
  8  9  1  0
  5 10  1  0
  7 10  1  0
  9 11  1  6
 11 12  1  0
 12 13  1  0
 13 14  1  0
 14 15  1  0
 14 16  1  6
 14 17  2  0
 15 18  1  0
 18 19  1  0
 18 20  2  0
 18 21  1  0
M  END
>  <%Rank>  (65) 
4.885496

>  <N_hits>  (65) 
2

>  <submitter_name>  (65) 
nan

>  <original SMILES>  (65) 
nan

>  <∆G_unbound>  (65) 
1.894859

>  <∆G_bound>  (65) 
-9.893332

>  <regarded>  (65) 
2FAV_0_B_δ,mArh-5cb5_L_0_L_β

>  <ref_pdb>  (65) 
nan

>  <smiles>  (65) 
NC1NCNC2NC(CCOP(=O)(O)OP(=O)(O)O)NC12

>  <submitter_email>  (65) 
nan

>  <disregarded>  (65) 


>  <LE>  (65) 
-0.561342

>  <submitter_institution>  (65) 
nan

>  <ref_mols>  (65) 
2FAV_0_B,mArh-5cb5_L_0_L

>  <N_constrained_atoms>  (65) 
19.0

>  <ref_url>  (65) 
nan

>  <method>  (65) 
nan

>  <comRMSD>  (65) 
0.461491

>  <N_unconstrained_atoms>  (65) 
2.0

>  <∆∆G>  (65) 
-11.78819

>  <runtime>  (65) 
37.543682

>  <generation_date>  (65) 
nan

$$$$
mArh-5cb5_E_0_E_γ-mArh-EU0241_0_A_α
     RDKit          3D

 19 21  0  0  0  0  0  0  0  0999 V2000
   -1.0300   12.6790   -4.1030 O   0  0  0  0  0  0  0  0  0  0  0  0
   -0.8410   14.0930   -4.1280 C   0  0  1  0  0  0  0  0  0  0  0  0
   -0.3030   14.7480   -2.8590 C   0  0  1  0  0  0  0  0  0  0  0  0
    0.2280   14.4960   -5.1200 C   0  0  2  0  0  0  0  0  0  0  0  0
    1.2840   13.5370   -5.0710 O   0  0  0  0  0  0  0  0  0  0  0  0
    0.9060   14.0830   -2.1520 C   0  0  0  0  0  0  0  0  0  0  0  0
    0.0970   16.0510   -3.3060 O   0  0  0  0  0  0  0  0  0  0  0  0
    0.7060   15.8670   -4.5990 C   0  0  2  0  0  0  0  0  0  0  0  0
    0.2880   17.0670   -5.4440 C   0  0  0  0  0  0  0  0  0  0  0  0
    0.5550   13.6630   -0.7980 N   0  0  0  0  0  0  0  0  0  0  0  0
   -0.5870   14.1110   -0.1640 C   0  0  0  0  0  0  0  0  0  0  0  0
   -1.8420   14.2810   -0.9220 C   0  0  0  0  0  0  0  0  0  0  0  0
   -0.6110   14.4100    1.1510 C   0  0  0  0  0  0  0  0  0  0  0  0
   -2.9370   14.7290   -0.3170 C   0  0  0  0  0  0  0  0  0  0  0  0
   -1.7260   14.8670    1.7990 N   0  0  0  0  0  0  0  0  0  0  0  0
   -2.8850   15.0370    1.1080 C   0  0  0  0  0  0  0  0  0  0  0  0
   -4.3010   15.0420   -0.6580 C   0  0  0  0  0  0  0  0  0  0  0  0
   -4.0430   15.4600    1.5190 N   0  0  0  0  0  0  0  0  0  0  0  0
   -4.9540   15.4600    0.3800 N   0  0  0  0  0  0  0  0  0  0  0  0
  2  1  1  1
  2  3  1  0
  2  4  1  0
  4  5  1  1
  3  6  1  6
  3  7  1  0
  4  8  1  0
  7  8  1  0
  8  9  1  6
  6 10  1  0
 10 11  1  0
 11 12  1  0
 11 13  2  0
 12 14  2  0
 13 15  1  0
 14 16  1  0
 15 16  1  0
 14 17  1  0
 16 18  2  0
 17 19  2  0
 18 19  1  0
M  END
>  <%Rank>  (66) 
4.961832

>  <N_hits>  (66) 
2

>  <submitter_name>  (66) 
nan

>  <original SMILES>  (66) 
nan

>  <∆G_unbound>  (66) 
0.311672

>  <∆G_bound>  (66) 
-7.181591

>  <regarded>  (66) 
mArh-5cb5_E_0_E_γ,mArh-EU0241_0_A_α

>  <ref_pdb>  (66) 
nan

>  <smiles>  (66) 
CC1OC(CNc2c[nH]c3nncc-3c2)C(O)C1O

>  <submitter_email>  (66) 
nan

>  <disregarded>  (66) 


>  <LE>  (66) 
-0.394382

>  <submitter_institution>  (66) 
nan

>  <ref_mols>  (66) 
mArh-5cb5_E_0_E,mArh-EU0241_0_A

>  <N_constrained_atoms>  (66) 
18.0

>  <ref_url>  (66) 
nan

>  <method>  (66) 
nan

>  <comRMSD>  (66) 
0.38686

>  <N_unconstrained_atoms>  (66) 
1.0

>  <∆∆G>  (66) 
-7.493262

>  <runtime>  (66) 
37.379564

>  <generation_date>  (66) 
nan

$$$$
mArh-5cms_M_12_M_β-mArh-x0724_0_A_α
     RDKit          3D

 26 27  0  0  0  0  0  0  0  0999 V2000
   -1.7280   20.2780   -8.0320 O   0  0  0  0  0  0  0  0  0  0  0  0
   -0.2430   19.7620   -7.7950 P   0  0  0  0  0  0  0  0  0  0  0  0
   -0.2490   18.8710   -6.4860 O   0  0  0  0  0  0  0  0  0  0  0  0
    0.7850   20.8320   -7.8020 O   0  0  0  0  0  0  0  0  0  0  0  0
   -0.0470   18.6580   -8.9180 O   0  0  0  0  0  0  0  0  0  0  0  0
   -1.5860   18.1350   -6.0670 P   0  0  0  0  0  0  0  0  0  0  0  0
   -1.1190   16.6400   -5.7200 O   0  0  0  0  0  0  0  0  0  0  0  0
   -2.6430   18.1900   -7.0960 O   0  0  0  0  0  0  0  0  0  0  0  0
   -1.9410   18.8800   -4.7070 O   0  0  0  0  0  0  0  0  0  0  0  0
   -0.6260   16.2240   -4.4680 C   0  0  0  0  0  0  0  0  0  0  0  0
   -1.7140   15.3420   -3.8410 C   0  0  0  0  0  0  0  0  0  0  0  0
   -1.4220   14.7460   -2.4530 C   0  0  0  0  0  0  0  0  0  0  0  0
   -2.6590   14.7290   -1.5810 C   0  0  0  0  0  0  0  0  0  0  0  0
   -2.5960   14.7690   -0.1750 C   0  0  0  0  0  0  0  0  0  0  0  0
   -3.9150   14.6740   -2.1930 C   0  0  0  0  0  0  0  0  0  0  0  0
   -3.7700   14.7520    0.5940 C   0  0  0  0  0  0  0  0  0  0  0  0
   -5.0820   14.6570   -1.4340 C   0  0  0  0  0  0  0  0  0  0  0  0
   -5.0230   14.6940   -0.0390 C   0  0  0  0  0  0  0  0  0  0  0  0
   -6.2410   14.6750    0.7070 N   0  0  0  0  0  0  0  0  0  0  0  0
   -7.4390   14.3720    0.1360 N   0  0  0  0  0  0  0  0  0  0  0  0
   -6.3920   14.9500    2.0400 C   0  0  0  0  0  0  0  0  0  0  0  0
   -7.7240   14.8350    2.3640 C   0  0  0  0  0  0  0  0  0  0  0  0
   -8.3220   14.4710    1.1400 C   0  0  0  0  0  0  0  0  0  0  0  0
   -8.3520   15.0580    3.6950 C   0  0  0  0  0  0  0  0  0  0  0  0
   -8.6210   13.7680    4.3210 N   0  0  0  0  0  0  0  0  0  0  0  0
   -8.4730   13.8610    5.7680 C   0  0  0  0  0  0  0  0  0  0  0  0
  1  2  1  0
  2  3  1  0
  2  4  2  0
  2  5  1  0
  3  6  1  0
  6  7  1  0
  6  8  2  0
  6  9  1  0
  7 10  1  0
 10 11  1  0
 11 12  1  0
 12 13  1  0
 13 14  2  0
 13 15  1  0
 14 16  1  0
 15 17  2  0
 16 18  2  0
 17 18  1  0
 18 19  1  0
 19 20  1  0
 19 21  1  0
 21 22  2  0
 20 23  2  0
 22 23  1  0
 22 24  1  0
 24 25  1  0
 25 26  1  0
M  END
>  <%Rank>  (67) 
5.038168

>  <N_hits>  (67) 
2

>  <submitter_name>  (67) 
nan

>  <original SMILES>  (67) 
nan

>  <∆G_unbound>  (67) 
0.404067

>  <∆G_bound>  (67) 
-11.697707

>  <regarded>  (67) 
mArh-5cms_M_12_M_β,mArh-x0724_0_A_α

>  <ref_pdb>  (67) 
nan

>  <smiles>  (67) 
CNCc1cnn(-c2ccc(CCCOP(=O)(O)OP(=O)(O)O)cc2)c1

>  <submitter_email>  (67) 
nan

>  <disregarded>  (67) 


>  <LE>  (67) 
-0.465453

>  <submitter_institution>  (67) 
nan

>  <ref_mols>  (67) 
mArh-5cms_M_12_M,mArh-x0724_0_A

>  <N_constrained_atoms>  (67) 
23.0

>  <ref_url>  (67) 
nan

>  <method>  (67) 
nan

>  <comRMSD>  (67) 
0.479154

>  <N_unconstrained_atoms>  (67) 
3.0

>  <∆∆G>  (67) 
-12.101774

>  <runtime>  (67) 
41.994774

>  <generation_date>  (67) 
nan

$$$$
mArh-5cms_M_12_M_γ-mArh-6woj_D_0_D_β
     RDKit          3D

 16 16  0  0  0  0  0  0  0  0999 V2000
   -1.7810   12.6480   -4.4190 O   0  0  0  0  0  0  0  0  0  0  0  0
   -0.5650   13.2790   -4.0760 C   0  0  2  0  0  0  0  0  0  0  0  0
   -0.6870   14.2300   -2.8750 C   0  0  0  0  0  0  0  0  0  0  0  0
   -0.0360   14.1720   -5.1880 C   0  0  2  0  0  0  0  0  0  0  0  0
    1.3870   14.0250   -5.1500 O   0  0  0  0  0  0  0  0  0  0  0  0
   -0.2350   15.5230   -3.3050 O   0  0  0  0  0  0  0  0  0  0  0  0
   -0.5470   15.5340   -4.7050 C   0  0  1  0  0  0  0  0  0  0  0  0
    0.0340   16.7990   -5.3120 C   0  0  0  0  0  0  0  0  0  0  0  0
   -1.1620   18.1080   -5.6750 P   0  0  2  0  0  0  0  0  0  0  0  0
   -0.3250   19.2810   -6.2970 O   0  0  0  0  0  0  0  0  0  0  0  0
   -1.8090   18.5990   -4.4380 O   0  0  0  0  0  0  0  0  0  0  0  0
   -2.2730   17.6330   -6.7540 O   0  0  0  0  0  0  0  0  0  0  0  0
   -0.0420   19.9210   -7.6840 P   0  0  0  0  0  0  0  0  0  0  0  0
   -1.4500   20.5260   -8.1150 O   0  0  0  0  0  0  0  0  0  0  0  0
    1.0870   20.8940   -7.6880 O   0  0  0  0  0  0  0  0  0  0  0  0
    0.0820   18.7070   -8.7240 O   0  0  0  0  0  0  0  0  0  0  0  0
  2  1  1  6
  2  3  1  0
  2  4  1  0
  4  5  1  1
  3  6  1  0
  4  7  1  0
  6  7  1  0
  7  8  1  6
  8  9  1  0
  9 10  1  0
  9 11  2  0
  9 12  1  6
 10 13  1  0
 13 14  1  0
 13 15  2  0
 13 16  1  0
M  END
>  <%Rank>  (68) 
5.114504

>  <N_hits>  (68) 
2

>  <submitter_name>  (68) 
nan

>  <original SMILES>  (68) 
nan

>  <∆G_unbound>  (68) 
1.057928

>  <∆G_bound>  (68) 
-9.254225

>  <regarded>  (68) 
mArh-5cms_M_12_M_γ,mArh-6woj_D_0_D_β

>  <ref_pdb>  (68) 
nan

>  <smiles>  (68) 
O=P(O)(O)OP(=O)(O)CC1OCC(O)C1O

>  <submitter_email>  (68) 
nan

>  <disregarded>  (68) 


>  <LE>  (68) 
-0.64451

>  <submitter_institution>  (68) 
nan

>  <ref_mols>  (68) 
mArh-5cms_M_12_M,mArh-6woj_D_0_D

>  <N_constrained_atoms>  (68) 
16.0

>  <ref_url>  (68) 
nan

>  <method>  (68) 
nan

>  <comRMSD>  (68) 
0.498444

>  <N_unconstrained_atoms>  (68) 
0.0

>  <∆∆G>  (68) 
-10.312153

>  <runtime>  (68) 
35.378158

>  <generation_date>  (68) 
nan

$$$$
mArh-3ew5_B_0_B_α-MAC-242_0_A_α
     RDKit          3D

 25 26  0  0  0  0  0  0  0  0999 V2000
   -0.3620   19.7520   -7.5690 P   0  0  2  0  0  0  0  0  0  0  0  0
   -1.3010   21.0270   -7.2660 O   0  0  0  0  0  0  0  0  0  0  0  0
   -2.6270   20.8920   -7.7090 C   0  0  0  0  0  0  0  0  0  0  0  0
   -0.3410   19.2580   -8.9510 O   0  0  0  0  0  0  0  0  0  0  0  0
   -0.7610   18.6010   -6.5200 O   0  0  0  0  0  0  0  0  0  0  0  0
    1.0940   20.2670   -7.2080 O   0  0  0  0  0  0  0  0  0  0  0  0
    0.1390   18.0840   -5.5410 C   0  0  0  0  0  0  0  0  0  0  0  0
   -3.6290   21.9330   -7.2210 C   0  0  2  0  0  0  0  0  0  0  0  0
   -0.1830   16.6450   -5.1230 C   0  0  0  0  0  0  0  0  0  0  0  0
   -5.0230   21.2940   -7.0760 C   0  0  0  0  0  0  0  0  0  0  0  0
   -3.7500   22.9590   -8.2130 O   0  0  0  0  0  0  0  0  0  0  0  0
   -1.6850   16.2900   -5.0470 C   0  0  0  0  0  0  0  0  0  0  0  0
   -5.6380   21.6530   -5.8390 O   0  0  0  0  0  0  0  0  0  0  0  0
   -2.0070   14.8620   -4.5470 C   0  0  0  0  0  0  0  0  0  0  0  0
   -2.2050   14.8000   -3.0480 C   0  0  0  0  0  0  0  0  0  0  0  0
   -1.1520   14.4170   -2.1950 C   0  0  0  0  0  0  0  0  0  0  0  0
   -3.4420   15.1370   -2.4900 C   0  0  0  0  0  0  0  0  0  0  0  0
   -1.3200   14.3840   -0.7990 C   0  0  0  0  0  0  0  0  0  0  0  0
   -3.6170   15.1070   -1.1130 C   0  0  0  0  0  0  0  0  0  0  0  0
   -2.5650   14.7400   -0.2490 C   0  0  0  0  0  0  0  0  0  0  0  0
   -0.2750   14.0140    0.0590 C   0  0  0  0  0  0  0  0  0  0  0  0
   -2.6910   14.7160    1.1400 C   0  0  0  0  0  0  0  0  0  0  0  0
   -0.5160   14.0210    1.4220 C   0  0  0  0  0  0  0  0  0  0  0  0
   -3.9100   15.0870    1.7100 N   0  0  0  0  0  0  0  0  0  0  0  0
   -1.6920   14.3660    1.9610 N   0  0  0  0  0  0  0  0  0  0  0  0
  1  2  1  0
  2  3  1  0
  1  4  2  0
  1  5  1  0
  1  6  1  1
  5  7  1  0
  3  8  1  0
  7  9  1  0
  8 10  1  0
  8 11  1  6
  9 12  1  0
 10 13  1  0
 12 14  1  0
 14 15  1  0
 15 16  2  0
 15 17  1  0
 16 18  1  0
 17 19  2  0
 18 20  2  0
 19 20  1  0
 18 21  1  0
 20 22  1  0
 21 23  2  0
 22 24  1  0
 22 25  2  0
 23 25  1  0
M  END
>  <%Rank>  (69) 
5.19084

>  <N_hits>  (69) 
2

>  <submitter_name>  (69) 
nan

>  <original SMILES>  (69) 
nan

>  <∆G_unbound>  (69) 
-0.185361

>  <∆G_bound>  (69) 
-14.980924

>  <regarded>  (69) 
mArh-3ew5_B_0_B_α,MAC-242_0_A_α

>  <ref_pdb>  (69) 
nan

>  <smiles>  (69) 
Nc1nccc2cc(CCCCOP(=O)(O)OC[C@@H](O)CO)ccc12

>  <submitter_email>  (69) 
nan

>  <disregarded>  (69) 


>  <LE>  (69) 
-0.591823

>  <submitter_institution>  (69) 
nan

>  <ref_mols>  (69) 
mArh-3ew5_B_0_B,MAC-242_0_A

>  <N_constrained_atoms>  (69) 
21.0

>  <ref_url>  (69) 
nan

>  <method>  (69) 
nan

>  <comRMSD>  (69) 
0.478935

>  <N_unconstrained_atoms>  (69) 
4.0

>  <∆∆G>  (69) 
-14.795564

>  <runtime>  (69) 
50.820443

>  <generation_date>  (69) 
nan

$$$$
mArh-x0852_0_B_α-mArh-x0592_0_A_α
     RDKit          3D

 21 22  0  0  0  0  0  0  0  0999 V2000
   -9.6700   17.7240    7.3840 N   0  0  0  0  0  0  0  0  0  0  0  0
   -9.4460   17.2660    6.3470 C   0  0  0  0  0  0  0  0  0  0  0  0
   -9.3060   16.6750    5.0600 C   0  0  0  0  0  0  0  0  0  0  0  0
   -8.4080   15.6390    4.8000 C   0  0  0  0  0  0  0  0  0  0  0  0
  -10.1200   17.1650    4.0290 C   0  0  0  0  0  0  0  0  0  0  0  0
   -7.6080   15.1490    5.8190 O   0  0  0  0  0  0  0  0  0  0  0  0
   -8.3490   15.1180    3.5080 C   0  0  0  0  0  0  0  0  0  0  0  0
  -10.0360   16.6190    2.7590 C   0  0  0  0  0  0  0  0  0  0  0  0
  -11.1110   17.2420    1.3410 Br  0  0  0  0  0  0  0  0  0  0  0  0
   -7.4930   14.1280    3.2410 O   0  0  0  0  0  0  0  0  0  0  0  0
   -9.1590   15.6050    2.5030 C   0  0  0  0  0  0  0  0  0  0  0  0
   -7.7580   13.3860    2.0470 C   0  0  0  0  0  0  0  0  0  0  0  0
   -8.0060   14.2790    0.8280 C   0  0  0  0  0  0  0  0  0  0  0  0
   -6.7660   14.5960    0.1520 N   0  0  0  0  0  0  0  0  0  0  0  0
   -6.7580   15.0510   -1.1280 N   0  0  0  0  0  0  0  0  0  0  0  0
   -5.5280   14.4780    0.6970 C   0  0  0  0  0  0  0  0  0  0  0  0
   -4.6310   14.8710   -0.2660 C   0  0  0  0  0  0  0  0  0  0  0  0
   -5.4530   15.2160   -1.3740 C   0  0  0  0  0  0  0  0  0  0  0  0
   -3.1920   14.9180   -0.1750 C   0  0  0  0  0  0  0  0  0  0  0  0
   -2.6660   14.9440    1.0920 N   0  0  0  0  0  0  0  0  0  0  0  0
   -2.4660   14.9230   -1.1580 O   0  0  0  0  0  0  0  0  0  0  0  0
  1  2  3  0
  2  3  1  0
  3  4  2  0
  3  5  1  0
  4  6  1  0
  4  7  1  0
  5  8  2  0
  8  9  1  0
  7 10  1  0
  7 11  2  0
  8 11  1  0
 10 12  1  0
 12 13  1  0
 13 14  1  0
 14 15  1  0
 14 16  1  0
 16 17  2  0
 15 18  2  0
 17 18  1  0
 17 19  1  0
 19 20  1  0
 19 21  2  0
M  END
>  <%Rank>  (70) 
5.267176

>  <N_hits>  (70) 
2

>  <submitter_name>  (70) 
nan

>  <original SMILES>  (70) 
nan

>  <∆G_unbound>  (70) 
1.260901

>  <∆G_bound>  (70) 
-4.471712

>  <regarded>  (70) 
mArh-x0852_0_B_α,mArh-x0592_0_A_α

>  <ref_pdb>  (70) 
nan

>  <smiles>  (70) 
N#Cc1cc(Br)cc(OCCn2cc(C(N)=O)cn2)c1O

>  <submitter_email>  (70) 
nan

>  <disregarded>  (70) 


>  <LE>  (70) 
-0.272982

>  <submitter_institution>  (70) 
nan

>  <ref_mols>  (70) 
mArh-x0852_0_B,mArh-x0592_0_A

>  <N_constrained_atoms>  (70) 
21.0

>  <ref_url>  (70) 
nan

>  <method>  (70) 
nan

>  <comRMSD>  (70) 
0.415229

>  <N_unconstrained_atoms>  (70) 
0.0

>  <∆∆G>  (70) 
-5.732613

>  <runtime>  (70) 
27.172745

>  <generation_date>  (70) 
nan

$$$$
2FAV_0_B_α-mArh-x0864_0_A_α
     RDKit          3D

 27 28  0  0  0  0  0  0  0  0999 V2000
   -1.2780   21.9880   -7.8090 C   0  0  0  0  0  0  0  0  0  0  0  0
   -2.7910   21.9880   -8.0260 C   0  0  1  0  0  0  0  0  0  0  0  0
   -3.5040   21.0770   -7.0910 N   0  0  0  0  0  0  0  0  0  0  0  0
   -3.4050   23.4000   -7.7920 C   0  0  1  0  0  0  0  0  0  0  0  0
   -4.2680   23.7720   -8.8960 O   0  0  0  0  0  0  0  0  0  0  0  0
   -2.6070   20.3540   -6.1600 C   0  0  0  0  0  0  0  0  0  0  0  0
   -4.6430   21.7980   -6.4990 C   0  0  0  0  0  0  0  0  0  0  0  0
   -4.2340   23.2740   -6.5080 C   0  0  2  0  0  0  0  0  0  0  0  0
   -5.3900   24.1190   -6.5320 O   0  0  0  0  0  0  0  0  0  0  0  0
   -2.0890   18.9860   -6.6840 C   0  0  0  0  0  0  0  0  0  0  0  0
   -0.6730   18.5730   -6.2760 C   0  0  0  0  0  0  0  0  0  0  0  0
   -0.6020   17.3670   -5.3230 C   0  0  0  0  0  0  0  0  0  0  0  0
    0.8110   16.8550   -5.0100 C   0  0  0  0  0  0  0  0  0  0  0  0
    0.9550   15.5160   -4.2520 C   0  0  0  0  0  0  0  0  0  0  0  0
    0.0120   14.3930   -4.7270 C   0  0  0  0  0  0  0  0  0  0  0  0
    0.6150   12.9650   -4.6550 C   0  0  1  0  0  0  0  0  0  0  0  0
    0.7300   12.4260   -3.2030 C   0  0  0  0  0  0  0  0  0  0  0  0
   -0.0890   11.9730   -5.5170 N   0  0  0  0  0  0  0  0  0  0  0  0
    0.4810   11.1000   -3.0690 O   0  0  0  0  0  0  0  0  0  0  0  0
    1.0220   13.0880   -2.2240 O   0  0  0  0  0  0  0  0  0  0  0  0
   -1.4320   11.7220   -5.3410 C   0  0  0  0  0  0  0  0  0  0  0  0
    0.6050   11.3420   -6.5390 C   0  0  0  0  0  0  0  0  0  0  0  0
    1.6630   11.7240   -6.9930 O   0  0  0  0  0  0  0  0  0  0  0  0
   -2.0330   10.6670   -5.9190 C   0  0  0  0  0  0  0  0  0  0  0  0
   -0.0050   10.0980   -7.0750 C   0  0  0  0  0  0  0  0  0  0  0  0
   -1.2640    9.7840   -6.7630 C   0  0  0  0  0  0  0  0  0  0  0  0
   -2.0810    8.2320   -7.4030 Br  0  0  0  0  0  0  0  0  0  0  0  0
  2  1  1  1
  2  3  1  0
  2  4  1  0
  4  5  1  6
  3  6  1  0
  3  7  1  0
  4  8  1  0
  7  8  1  0
  8  9  1  6
  6 10  1  0
 10 11  1  0
 11 12  1  0
 12 13  1  0
 13 14  1  0
 14 15  1  0
 16 15  1  1
 16 17  1  0
 16 18  1  0
 17 19  1  0
 17 20  2  0
 18 21  1  0
 18 22  1  0
 22 23  2  0
 21 24  2  0
 22 25  1  0
 24 26  1  0
 25 26  2  0
 26 27  1  0
M  END
>  <%Rank>  (71) 
5.343511

>  <N_hits>  (71) 
2

>  <submitter_name>  (71) 
nan

>  <original SMILES>  (71) 
nan

>  <∆G_unbound>  (71) 
1.016325

>  <∆G_bound>  (71) 
-12.709172

>  <regarded>  (71) 
2FAV_0_B_α,mArh-x0864_0_A_α

>  <ref_pdb>  (71) 
nan

>  <smiles>  (71) 
CC1C(O)C(O)CN1CCCCCCCC(C(=O)O)n1ccc(Br)cc1=O

>  <submitter_email>  (71) 
nan

>  <disregarded>  (71) 


>  <LE>  (71) 
-0.508352

>  <submitter_institution>  (71) 
nan

>  <ref_mols>  (71) 
2FAV_0_B,mArh-x0864_0_A

>  <N_constrained_atoms>  (71) 
20.0

>  <ref_url>  (71) 
nan

>  <method>  (71) 
nan

>  <comRMSD>  (71) 
0.340043

>  <N_unconstrained_atoms>  (71) 
7.0

>  <∆∆G>  (71) 
-13.725497

>  <runtime>  (71) 
50.864661

>  <generation_date>  (71) 
nan

$$$$
5DUS_0_A_α-mArh-1vhu_0_A_α
     RDKit          3D

 14 14  0  0  0  0  0  0  0  0999 V2000
   -2.0940   21.6890   -7.5330 C   0  0  0  0  0  0  0  0  0  0  0  0
   -1.0410   21.0210   -8.3850 C   0  0  0  0  0  0  0  0  0  0  0  0
    0.0580   19.8540   -7.6300 S   0  0  0  0  0  0  0  0  0  0  0  0
   -3.4320   21.9990   -8.2260 C   0  0  1  0  0  0  0  0  0  0  0  0
   -4.4010   21.1420   -7.5700 O   0  0  0  0  0  0  0  0  0  0  0  0
   -3.9340   23.4580   -8.0520 C   0  0  1  0  0  0  0  0  0  0  0  0
   -4.3700   24.0410   -9.2820 O   0  0  0  0  0  0  0  0  0  0  0  0
    0.1700   18.7970   -8.6480 O   0  0  0  0  0  0  0  0  0  0  0  0
   -0.6530   19.4730   -6.4150 O   0  0  0  0  0  0  0  0  0  0  0  0
    1.2610   20.7020   -7.4300 O   0  0  0  0  0  0  0  0  0  0  0  0
   -4.9090   21.9530   -6.5330 C   0  0  1  0  0  0  0  0  0  0  0  0
   -5.1590   23.3010   -7.1700 C   0  0  1  0  0  0  0  0  0  0  0  0
   -6.1140   21.4310   -6.0340 O   0  0  0  0  0  0  0  0  0  0  0  0
   -5.3650   24.2990   -6.1710 O   0  0  0  0  0  0  0  0  0  0  0  0
  1  2  1  0
  2  3  1  0
  4  1  1  1
  4  5  1  0
  4  6  1  0
  6  7  1  6
  3  8  2  0
  3  9  2  0
  3 10  1  0
  5 11  1  0
  6 12  1  0
 11 12  1  0
 11 13  1  6
 12 14  1  1
M  CHG  1  10  -1
M  END
>  <%Rank>  (72) 
5.419847

>  <N_hits>  (72) 
2

>  <submitter_name>  (72) 
nan

>  <original SMILES>  (72) 
nan

>  <∆G_unbound>  (72) 
1.237053

>  <∆G_bound>  (72) 
-13.593204

>  <regarded>  (72) 
5DUS_0_A_α,mArh-1vhu_0_A_α

>  <ref_pdb>  (72) 
nan

>  <smiles>  (72) 
O=S(=O)([O-])CCC1OC(O)C(O)C1O

>  <submitter_email>  (72) 
nan

>  <disregarded>  (72) 


>  <LE>  (72) 
-1.059304

>  <submitter_institution>  (72) 
nan

>  <ref_mols>  (72) 
5DUS_0_A,mArh-1vhu_0_A

>  <N_constrained_atoms>  (72) 
14.0

>  <ref_url>  (72) 
nan

>  <method>  (72) 
nan

>  <comRMSD>  (72) 
0.659667

>  <N_unconstrained_atoms>  (72) 
0.0

>  <∆∆G>  (72) 
-14.830257

>  <runtime>  (72) 
26.679547

>  <generation_date>  (72) 
nan

$$$$
mArh-3ew5_A_0_A_α-5CB5_0_P_γ
     RDKit          3D

 19 19  0  0  0  0  0  0  0  0999 V2000
   -0.1570   20.0200   -7.7210 P   0  0  2  0  0  0  0  0  0  0  0  0
   -1.7310   20.3330   -7.5940 O   0  0  0  0  0  0  0  0  0  0  0  0
   -2.2060   21.5830   -8.1070 C   0  0  0  0  0  0  0  0  0  0  0  0
    0.7010   21.2060   -7.9940 O   0  0  0  0  0  0  0  0  0  0  0  0
   -0.0260   18.8750   -8.8440 O   0  0  0  0  0  0  0  0  0  0  0  0
    0.3200   19.1720   -6.4410 O   0  0  0  0  0  0  0  0  0  0  0  0
   -0.4510   18.0930   -5.9230 C   0  0  0  0  0  0  0  0  0  0  0  0
   -3.3970   22.1110   -7.2910 C   0  0  2  0  0  0  0  0  0  0  0  0
    0.4720   17.0000   -5.3650 C   0  0  0  0  0  0  0  0  0  0  0  0
   -4.6970   22.1700   -8.1040 C   0  0  0  0  0  0  0  0  0  0  0  0
   -3.1400   23.4430   -6.8360 O   0  0  0  0  0  0  0  0  0  0  0  0
   -0.3070   15.7870   -4.8190 C   0  0  2  0  0  0  0  0  0  0  0  0
   -5.8160   21.9910   -7.2180 O   0  0  0  0  0  0  0  0  0  0  0  0
   -0.2910   15.8320   -3.3830 O   0  0  0  0  0  0  0  0  0  0  0  0
    0.1420   14.3530   -5.1200 C   0  0  1  0  0  0  0  0  0  0  0  0
    1.5240   14.0690   -5.1460 O   0  0  0  0  0  0  0  0  0  0  0  0
   -0.8680   14.5950   -2.9470 C   0  0  0  0  0  0  0  0  0  0  0  0
   -0.5440   13.5580   -4.0180 C   0  0  1  0  0  0  0  0  0  0  0  0
   -1.6530   12.8610   -4.5390 O   0  0  0  0  0  0  0  0  0  0  0  0
  1  2  1  0
  2  3  1  0
  1  4  2  0
  1  5  1  6
  1  6  1  0
  6  7  1  0
  3  8  1  0
  7  9  1  0
  8 10  1  0
  8 11  1  6
 12  9  1  6
 10 13  1  0
 12 14  1  0
 12 15  1  0
 15 16  1  1
 14 17  1  0
 15 18  1  0
 17 18  1  0
 18 19  1  6
M  END
>  <%Rank>  (73) 
5.496183

>  <N_hits>  (73) 
2

>  <submitter_name>  (73) 
nan

>  <original SMILES>  (73) 
nan

>  <∆G_unbound>  (73) 
0.795616

>  <∆G_bound>  (73) 
-10.715293

>  <regarded>  (73) 
mArh-3ew5_A_0_A_α,5CB5_0_P_γ

>  <ref_pdb>  (73) 
nan

>  <smiles>  (73) 
O=P(O)(OCCC1OCC(O)C1O)OC[C@@H](O)CO

>  <submitter_email>  (73) 
nan

>  <disregarded>  (73) 


>  <LE>  (73) 
-0.605837

>  <submitter_institution>  (73) 
nan

>  <ref_mols>  (73) 
mArh-3ew5_A_0_A,5CB5_0_P

>  <N_constrained_atoms>  (73) 
18.0

>  <ref_url>  (73) 
nan

>  <method>  (73) 
nan

>  <comRMSD>  (73) 
0.499266

>  <N_unconstrained_atoms>  (73) 
1.0

>  <∆∆G>  (73) 
-11.510909

>  <runtime>  (73) 
33.520844

>  <generation_date>  (73) 
nan

$$$$
4IQY_0_B_γ-mArh-4gvw_0_A_α
     RDKit          3D

 22 23  0  0  0  0  0  0  0  0999 V2000
   -1.4750   12.4050   -3.6910 O   0  0  0  0  0  0  0  0  0  0  0  0
   -0.4950   13.3950   -3.4340 C   0  0  2  0  0  0  0  0  0  0  0  0
   -1.0040   14.5860   -2.6440 C   0  0  0  0  0  0  0  0  0  0  0  0
    0.0240   13.9960   -4.7340 C   0  0  2  0  0  0  0  0  0  0  0  0
    1.3970   13.6250   -4.9110 O   0  0  0  0  0  0  0  0  0  0  0  0
   -0.2300   15.6870   -3.1030 O   0  0  0  0  0  0  0  0  0  0  0  0
   -0.1130   15.5070   -4.5240 C   0  0  1  0  0  0  0  0  0  0  0  0
    1.0770   16.3130   -4.9910 C   0  0  0  0  0  0  0  0  0  0  0  0
    0.7980   17.7820   -5.2440 C   0  0  0  0  0  0  0  0  0  0  0  0
   -0.5950   18.0190   -5.7880 C   0  0  0  0  0  0  0  0  0  0  0  0
   -0.6930   19.4210   -6.1510 N   0  0  0  0  0  0  0  0  0  0  0  0
   -0.2550   19.9030   -7.7150 S   0  0  1  0  0  0  0  0  0  0  0  0
    0.7320   20.9540   -7.5890 O   0  0  0  0  0  0  0  0  0  0  0  0
   -0.0550   18.7380   -8.5960 O   0  0  0  0  0  0  0  0  0  0  0  0
   -1.8610   20.5940   -8.0420 C   0  0  0  0  0  0  0  0  0  0  0  0
   -2.1880   21.8160   -7.2270 C   0  0  0  0  0  0  0  0  0  0  0  0
   -3.5690   22.3010   -7.3340 N   0  0  0  0  0  0  0  0  0  0  0  0
   -3.8000   23.5290   -6.5890 C   0  0  0  0  0  0  0  0  0  0  0  0
   -4.0990   22.4630   -8.6880 C   0  0  0  0  0  0  0  0  0  0  0  0
   -5.2720   23.8420   -6.6170 C   0  0  0  0  0  0  0  0  0  0  0  0
   -5.5890   22.8090   -8.7170 C   0  0  0  0  0  0  0  0  0  0  0  0
   -5.8480   23.9580   -7.9190 O   0  0  0  0  0  0  0  0  0  0  0  0
  2  1  1  6
  2  3  1  0
  2  4  1  0
  4  5  1  1
  3  6  1  0
  4  7  1  0
  6  7  1  0
  7  8  1  1
  8  9  1  0
  9 10  1  0
 10 11  1  0
 11 12  2  0
 12 13  2  0
 12 14  1  6
 12 15  1  0
 15 16  1  0
 16 17  1  0
 17 18  1  0
 17 19  1  0
 18 20  1  0
 19 21  1  0
 20 22  1  0
 21 22  1  0
M  CHG  1  14  -1
M  END
>  <%Rank>  (74) 
5.572519

>  <N_hits>  (74) 
2

>  <submitter_name>  (74) 
nan

>  <original SMILES>  (74) 
nan

>  <∆G_unbound>  (74) 
0.329091

>  <∆G_bound>  (74) 
-15.57989

>  <regarded>  (74) 
4IQY_0_B_γ,mArh-4gvw_0_A_α

>  <ref_pdb>  (74) 
nan

>  <smiles>  (74) 
O=S([O-])(CCN1CCOCC1)=NCCCC1OCC(O)C1O

>  <submitter_email>  (74) 
nan

>  <disregarded>  (74) 


>  <LE>  (74) 
-0.723136

>  <submitter_institution>  (74) 
nan

>  <ref_mols>  (74) 
4IQY_0_B,mArh-4gvw_0_A

>  <N_constrained_atoms>  (74) 
20.0

>  <ref_url>  (74) 
nan

>  <method>  (74) 
nan

>  <comRMSD>  (74) 
0.575327

>  <N_unconstrained_atoms>  (74) 
2.0

>  <∆∆G>  (74) 
-15.908981

>  <runtime>  (74) 
50.32593

>  <generation_date>  (74) 
nan

$$$$
mArh-3q6z_0_A_γ-mArh-5cb5_Q_0_Q_β
     RDKit          3D

 18 18  0  0  0  0  0  0  0  0999 V2000
   -1.0140   12.5390   -4.4300 O   0  0  0  0  0  0  0  0  0  0  0  0
   -0.7860   13.9570   -4.3520 C   0  0  1  0  0  0  0  0  0  0  0  0
   -1.1400   14.4560   -2.9560 C   0  0  0  0  0  0  0  0  0  0  0  0
    0.7060   14.2430   -4.4580 C   0  0  2  0  0  0  0  0  0  0  0  0
    1.4680   13.1220   -4.0290 O   0  0  0  0  0  0  0  0  0  0  0  0
   -0.0810   15.3200   -2.4950 O   0  0  0  0  0  0  0  0  0  0  0  0
    0.8780   15.4730   -3.5610 C   0  0  2  0  0  0  0  0  0  0  0  0
    0.7400   16.8580   -4.1780 C   0  0  0  0  0  0  0  0  0  0  0  0
    0.2660   16.8280   -5.5920 C   0  0  0  0  0  0  0  0  0  0  0  0
   -1.1260   17.0140   -5.5160 O   0  0  0  0  0  0  0  0  0  0  0  0
   -1.7330   18.3530   -6.0780 P   0  0  1  0  0  0  0  0  0  0  0  0
   -0.4780   19.2110   -6.4490 O   0  0  0  0  0  0  0  0  0  0  0  0
   -2.7800   18.1710   -7.0790 O   0  0  0  0  0  0  0  0  0  0  0  0
   -2.2380   19.1870   -4.8160 O   0  0  0  0  0  0  0  0  0  0  0  0
   -0.2330   19.9120   -7.8190 P   0  0  0  0  0  0  0  0  0  0  0  0
   -1.6620   20.4440   -8.2780 O   0  0  0  0  0  0  0  0  0  0  0  0
    0.8070   20.9640   -7.7890 O   0  0  0  0  0  0  0  0  0  0  0  0
    0.0060   18.7150   -8.8570 O   0  0  0  0  0  0  0  0  0  0  0  0
  2  1  1  1
  2  3  1  0
  2  4  1  0
  4  5  1  1
  3  6  1  0
  4  7  1  0
  6  7  1  0
  7  8  1  6
  8  9  1  0
  9 10  1  0
 10 11  1  0
 11 12  1  0
 11 13  2  0
 11 14  1  1
 12 15  1  0
 15 16  1  0
 15 17  2  0
 15 18  1  0
M  END
>  <%Rank>  (75) 
5.648855

>  <N_hits>  (75) 
2

>  <submitter_name>  (75) 
nan

>  <original SMILES>  (75) 
nan

>  <∆G_unbound>  (75) 
1.594509

>  <∆G_bound>  (75) 
-10.431412

>  <regarded>  (75) 
mArh-3q6z_0_A_γ,mArh-5cb5_Q_0_Q_β

>  <ref_pdb>  (75) 
nan

>  <smiles>  (75) 
O=P(O)(O)OP(=O)(O)OCCC1OCC(O)C1O

>  <submitter_email>  (75) 
nan

>  <disregarded>  (75) 


>  <LE>  (75) 
-0.668107

>  <submitter_institution>  (75) 
nan

>  <ref_mols>  (75) 
mArh-3q6z_0_A,mArh-5cb5_Q_0_Q

>  <N_constrained_atoms>  (75) 
17.0

>  <ref_url>  (75) 
nan

>  <method>  (75) 
nan

>  <comRMSD>  (75) 
0.508612

>  <N_unconstrained_atoms>  (75) 
1.0

>  <∆∆G>  (75) 
-12.025921

>  <runtime>  (75) 
36.371971

>  <generation_date>  (75) 
nan

$$$$
mArh-5cb5_H_0_H_β-5CB5_0_G_δ
     RDKit          3D

 21 22  0  0  0  0  0  0  0  0999 V2000
   -1.4120   20.8250   -8.7390 O   0  0  0  0  0  0  0  0  0  0  0  0
   -0.3740   20.0300   -7.8380 P   0  0  0  0  0  0  0  0  0  0  0  0
   -1.1510   19.6870   -6.4960 O   0  0  0  0  0  0  0  0  0  0  0  0
    0.8880   20.7990   -7.6660 O   0  0  0  0  0  0  0  0  0  0  0  0
   -0.2000   18.6960   -8.7040 O   0  0  0  0  0  0  0  0  0  0  0  0
   -1.6160   18.2230   -6.1510 P   0  0  2  0  0  0  0  0  0  0  0  0
   -0.2600   17.4090   -6.3290 O   0  0  0  0  0  0  0  0  0  0  0  0
   -2.7080   17.7200   -7.0100 O   0  0  0  0  0  0  0  0  0  0  0  0
   -1.8350   18.0750   -4.5800 O   0  0  0  0  0  0  0  0  0  0  0  0
   -1.4890   16.8050   -4.0400 C   0  0  0  0  0  0  0  0  0  0  0  0
   -2.6900   15.8590   -4.0050 C   0  0  0  0  0  0  0  0  0  0  0  0
   -2.8630   14.9330   -2.7890 C   0  0  1  0  0  0  0  0  0  0  0  0
   -1.5670   14.4450   -2.3060 N   0  0  0  0  0  0  0  0  0  0  0  0
   -3.6000   15.4800   -1.6300 N   0  0  0  0  0  0  0  0  0  0  0  0
   -1.4780   15.0300   -0.9980 C   0  0  1  0  0  0  0  0  0  0  0  0
   -2.8900   14.8550   -0.5100 C   0  0  1  0  0  0  0  0  0  0  0  0
   -0.5160   14.3250   -0.2120 N   0  0  0  0  0  0  0  0  0  0  0  0
   -2.9100   15.5120    0.8670 C   0  0  1  0  0  0  0  0  0  0  0  0
   -4.1830   15.3940    1.5650 N   0  0  0  0  0  0  0  0  0  0  0  0
   -0.5420   14.9100    1.1090 C   0  0  0  0  0  0  0  0  0  0  0  0
   -1.8900   14.9290    1.6920 N   0  0  0  0  0  0  0  0  0  0  0  0
  1  2  1  0
  2  3  1  0
  2  4  2  0
  2  5  1  0
  3  6  1  0
  6  7  1  6
  6  8  2  0
  6  9  1  0
  9 10  1  0
 10 11  1  0
 12 11  1  6
 12 13  1  0
 12 14  1  0
 15 13  1  6
 16 14  1  6
 15 16  1  0
 15 17  1  0
 16 18  1  0
 18 19  1  1
 17 20  1  0
 18 21  1  0
 20 21  1  0
M  END
>  <%Rank>  (76) 
5.725191

>  <N_hits>  (76) 
2

>  <submitter_name>  (76) 
nan

>  <original SMILES>  (76) 
nan

>  <∆G_unbound>  (76) 
4.831508

>  <∆G_bound>  (76) 
-10.214926

>  <regarded>  (76) 
mArh-5cb5_H_0_H_β,5CB5_0_G_δ

>  <ref_pdb>  (76) 
nan

>  <smiles>  (76) 
NC1NCNC2NC(CCOP(=O)(O)OP(=O)(O)O)NC12

>  <submitter_email>  (76) 
nan

>  <disregarded>  (76) 


>  <LE>  (76) 
-0.716497

>  <submitter_institution>  (76) 
nan

>  <ref_mols>  (76) 
mArh-5cb5_H_0_H,5CB5_0_G

>  <N_constrained_atoms>  (76) 
19.0

>  <ref_url>  (76) 
nan

>  <method>  (76) 
nan

>  <comRMSD>  (76) 
0.55134

>  <N_unconstrained_atoms>  (76) 
2.0

>  <∆∆G>  (76) 
-15.046434

>  <runtime>  (76) 
34.29539

>  <generation_date>  (76) 
nan

$$$$
mArh-5cb5_D_0_D_γ-mArh-x0421_0_A_α
     RDKit          3D

 19 21  0  0  0  0  0  0  0  0999 V2000
    0.0730   12.6710   -4.0740 O   0  0  0  0  0  0  0  0  0  0  0  0
   -0.6430   13.9240   -4.0570 C   0  0  1  0  0  0  0  0  0  0  0  0
   -0.2660   14.7710   -2.8410 C   0  0  2  0  0  0  0  0  0  0  0  0
   -0.1440   14.7390   -5.2300 C   0  0  2  0  0  0  0  0  0  0  0  0
    0.7160   13.9510   -6.0390 O   0  0  0  0  0  0  0  0  0  0  0  0
   -1.2690   14.7300   -1.7870 N   0  0  0  0  0  0  0  0  0  0  0  0
   -0.0010   16.0980   -3.3460 O   0  0  0  0  0  0  0  0  0  0  0  0
    0.5760   15.9430   -4.6390 C   0  0  2  0  0  0  0  0  0  0  0  0
    0.4010   17.2330   -5.4320 C   0  0  0  0  0  0  0  0  0  0  0  0
   -2.5580   14.8650   -1.7910 C   0  0  0  0  0  0  0  0  0  0  0  0
   -3.3120   15.0930   -2.9140 N   0  0  0  0  0  0  0  0  0  0  0  0
   -3.3650   14.8050   -0.5760 C   0  0  0  0  0  0  0  0  0  0  0  0
   -2.8840   14.7470    0.7170 C   0  0  0  0  0  0  0  0  0  0  0  0
   -4.7680   14.7930   -0.5560 N   0  0  0  0  0  0  0  0  0  0  0  0
   -3.9790   14.6920    1.4960 N   0  0  0  0  0  0  0  0  0  0  0  0
   -5.0780   14.7200    0.7260 C   0  0  0  0  0  0  0  0  0  0  0  0
   -6.4880   14.6600    1.3620 C   0  0  0  0  0  0  0  0  0  0  0  0
   -7.7340   14.6660    0.5190 C   0  0  0  0  0  0  0  0  0  0  0  0
   -7.2880   13.4000    1.1980 C   0  0  0  0  0  0  0  0  0  0  0  0
  2  1  1  1
  2  3  1  0
  2  4  1  0
  4  5  1  1
  3  6  1  1
  3  7  1  0
  4  8  1  0
  7  8  1  0
  8  9  1  6
  6 10  2  3
 10 11  1  0
 10 12  1  0
 12 13  2  0
 12 14  1  0
 13 15  1  0
 14 16  2  0
 15 16  1  0
 16 17  1  0
 17 18  1  0
 17 19  1  0
 18 19  1  0
M  END
>  <%Rank>  (77) 
5.801527

>  <N_hits>  (77) 
2

>  <submitter_name>  (77) 
nan

>  <original SMILES>  (77) 
nan

>  <∆G_unbound>  (77) 
0.371731

>  <∆G_bound>  (77) 
-5.229428

>  <regarded>  (77) 
mArh-5cb5_D_0_D_γ,mArh-x0421_0_A_α

>  <ref_pdb>  (77) 
nan

>  <smiles>  (77) 
CC1OC(N=C(N)c2c[nH]c(C3CC3)n2)C(O)C1O

>  <submitter_email>  (77) 
nan

>  <disregarded>  (77) 


>  <LE>  (77) 
-0.294798

>  <submitter_institution>  (77) 
nan

>  <ref_mols>  (77) 
mArh-5cb5_D_0_D,mArh-x0421_0_A

>  <N_constrained_atoms>  (77) 
19.0

>  <ref_url>  (77) 
nan

>  <method>  (77) 
nan

>  <comRMSD>  (77) 
0.393466

>  <N_unconstrained_atoms>  (77) 
0.0

>  <∆∆G>  (77) 
-5.601158

>  <runtime>  (77) 
33.059514

>  <generation_date>  (77) 
nan

$$$$
mArh-x0805_0_A_β-mArh-4iqy_B_0_B_α
     RDKit          3D

 23 24  0  0  0  0  0  0  0  0999 V2000
    0.4510   12.1410   -2.7060 C   0  0  0  0  0  0  0  0  0  0  0  0
    0.3890   10.7990   -2.8830 O   0  0  0  0  0  0  0  0  0  0  0  0
    0.5610   12.6210   -1.5780 O   0  0  0  0  0  0  0  0  0  0  0  0
    0.3500   12.9110   -4.0280 C   0  0  1  0  0  0  0  0  0  0  0  0
   -0.5230   14.1590   -3.8660 C   0  0  0  0  0  0  0  0  0  0  0  0
    1.7120   13.2090   -4.6830 C   0  0  0  0  0  0  0  0  0  0  0  0
    2.3010   14.4700   -4.3460 O   0  0  0  0  0  0  0  0  0  0  0  0
    0.2840   15.2730   -3.2330 C   0  0  0  0  0  0  0  0  0  0  0  0
    1.4390   15.6130   -4.1350 C   0  0  2  0  0  0  0  0  0  0  0  0
    0.9470   16.2790   -5.4350 C   0  0  0  0  0  0  0  0  0  0  0  0
    0.9420   17.8260   -5.4890 C   0  0  0  0  0  0  0  0  0  0  0  0
   -0.3090   18.4370   -6.1510 C   0  0  0  0  0  0  0  0  0  0  0  0
   -0.0390   19.3890   -7.3430 C   0  0  0  0  0  0  0  0  0  0  0  0
   -1.3520   19.8470   -7.9820 C   0  0  0  0  0  0  0  0  0  0  0  0
   -1.7790   21.3340   -7.9200 C   0  0  0  0  0  0  0  0  0  0  0  0
   -3.1950   21.7030   -8.4480 C   0  0  1  0  0  0  0  0  0  0  0  0
   -4.1850   20.7960   -7.9430 O   0  0  0  0  0  0  0  0  0  0  0  0
   -3.7010   23.1340   -8.1500 C   0  0  1  0  0  0  0  0  0  0  0  0
   -4.5450   23.7060   -9.1590 O   0  0  0  0  0  0  0  0  0  0  0  0
   -5.0480   21.5040   -7.0590 C   0  0  1  0  0  0  0  0  0  0  0  0
   -4.4810   22.9180   -6.8500 C   0  0  2  0  0  0  0  0  0  0  0  0
   -6.3620   21.4690   -7.5640 O   0  0  0  0  0  0  0  0  0  0  0  0
   -5.5090   23.9190   -6.7290 O   0  0  0  0  0  0  0  0  0  0  0  0
  1  2  1  0
  1  3  2  0
  4  1  1  1
  4  5  1  0
  4  6  1  0
  6  7  1  0
  5  8  1  0
  7  9  1  0
  8  9  1  0
  9 10  1  6
 10 11  1  0
 11 12  1  0
 12 13  1  0
 13 14  1  0
 14 15  1  0
 16 15  1  1
 16 17  1  0
 16 18  1  0
 18 19  1  6
 17 20  1  0
 18 21  1  0
 20 21  1  0
 20 22  1  6
 21 23  1  6
M  END
>  <%Rank>  (78) 
5.877863

>  <N_hits>  (78) 
2

>  <submitter_name>  (78) 
nan

>  <original SMILES>  (78) 
nan

>  <∆G_unbound>  (78) 
0.166314

>  <∆G_bound>  (78) 
-12.632887

>  <regarded>  (78) 
mArh-x0805_0_A_β,mArh-4iqy_B_0_B_α

>  <ref_pdb>  (78) 
nan

>  <smiles>  (78) 
O=C(O)C1CCC(CCCCCCC2OC(O)C(O)C2O)OC1

>  <submitter_email>  (78) 
nan

>  <disregarded>  (78) 


>  <LE>  (78) 
-0.556487

>  <submitter_institution>  (78) 
nan

>  <ref_mols>  (78) 
mArh-x0805_0_A,mArh-4iqy_B_0_B

>  <N_constrained_atoms>  (78) 
18.0

>  <ref_url>  (78) 
nan

>  <method>  (78) 
nan

>  <comRMSD>  (78) 
0.36579

>  <N_unconstrained_atoms>  (78) 
5.0

>  <∆∆G>  (78) 
-12.7992

>  <runtime>  (78) 
42.147741

>  <generation_date>  (78) 
nan

$$$$
mArh-2bfq_0_A_β-2FAV_0_B_γ
     RDKit          3D

 18 18  0  0  0  0  0  0  0  0999 V2000
   -1.2660   20.9970   -8.6520 O   0  0  0  0  0  0  0  0  0  0  0  0
   -0.2660   20.0660   -7.8460 P   0  0  0  0  0  0  0  0  0  0  0  0
   -1.0060   19.8530   -6.4820 O   0  0  0  0  0  0  0  0  0  0  0  0
    0.0370   18.8290   -8.6430 O   0  0  0  0  0  0  0  0  0  0  0  0
    1.0030   21.0160   -7.5980 O   0  0  0  0  0  0  0  0  0  0  0  0
   -1.6150   18.5080   -5.9580 P   0  0  1  0  0  0  0  0  0  0  0  0
   -0.4810   17.4470   -6.2030 O   0  0  0  0  0  0  0  0  0  0  0  0
   -2.1180   18.5450   -4.5810 O   0  0  0  0  0  0  0  0  0  0  0  0
   -2.7030   18.0850   -7.0460 O   0  0  0  0  0  0  0  0  0  0  0  0
    0.7390   17.7850   -5.6050 C   0  0  0  0  0  0  0  0  0  0  0  0
    1.2410   16.6300   -4.7750 C   0  0  0  0  0  0  0  0  0  0  0  0
    0.2370   15.5880   -4.4240 C   0  0  2  0  0  0  0  0  0  0  0  0
    0.1940   15.3230   -3.0050 O   0  0  0  0  0  0  0  0  0  0  0  0
    0.5570   14.2390   -5.0580 C   0  0  1  0  0  0  0  0  0  0  0  0
    1.8600   13.7470   -4.7370 O   0  0  0  0  0  0  0  0  0  0  0  0
   -0.3010   13.9700   -2.9030 C   0  0  0  0  0  0  0  0  0  0  0  0
   -0.4970   13.4520   -4.3310 C   0  0  2  0  0  0  0  0  0  0  0  0
   -0.2310   12.0560   -4.4080 O   0  0  0  0  0  0  0  0  0  0  0  0
  1  2  1  0
  2  3  1  0
  2  4  2  0
  2  5  1  0
  3  6  1  0
  6  7  1  0
  6  8  2  0
  6  9  1  6
  7 10  1  0
 10 11  1  0
 12 11  1  1
 12 13  1  0
 12 14  1  0
 14 15  1  1
 13 16  1  0
 14 17  1  0
 16 17  1  0
 17 18  1  1
M  END
>  <%Rank>  (79) 
5.954198

>  <N_hits>  (79) 
2

>  <submitter_name>  (79) 
nan

>  <original SMILES>  (79) 
nan

>  <∆G_unbound>  (79) 
2.208268

>  <∆G_bound>  (79) 
-10.2553

>  <regarded>  (79) 
mArh-2bfq_0_A_β,2FAV_0_B_γ

>  <ref_pdb>  (79) 
nan

>  <smiles>  (79) 
O=P(O)(O)OP(=O)(O)OCCC1OCC(O)C1O

>  <submitter_email>  (79) 
nan

>  <disregarded>  (79) 


>  <LE>  (79) 
-0.69242

>  <submitter_institution>  (79) 
nan

>  <ref_mols>  (79) 
mArh-2bfq_0_A,2FAV_0_B

>  <N_constrained_atoms>  (79) 
17.0

>  <ref_url>  (79) 
nan

>  <method>  (79) 
nan

>  <comRMSD>  (79) 
0.523443

>  <N_unconstrained_atoms>  (79) 
1.0

>  <∆∆G>  (79) 
-12.463568

>  <runtime>  (79) 
31.664959

>  <generation_date>  (79) 
nan

$$$$
3Q6Z_0_A_γ-mArh-6fx_7_0A_β
     RDKit          3D

 18 18  0  0  0  0  0  0  0  0999 V2000
   -1.0900   12.5690   -4.4080 O   0  0  0  0  0  0  0  0  0  0  0  0
   -0.9020   13.9950   -4.3710 C   0  0  1  0  0  0  0  0  0  0  0  0
   -1.1570   14.5090   -2.9590 C   0  0  0  0  0  0  0  0  0  0  0  0
    0.5680   14.3340   -4.6090 C   0  0  2  0  0  0  0  0  0  0  0  0
    1.4010   13.2490   -4.2150 O   0  0  0  0  0  0  0  0  0  0  0  0
   -0.0090   15.2910   -2.5560 O   0  0  0  0  0  0  0  0  0  0  0  0
    0.7410   15.5890   -3.7480 C   0  0  2  0  0  0  0  0  0  0  0  0
    0.2950   16.9500   -4.2730 C   0  0  0  0  0  0  0  0  0  0  0  0
    0.7870   17.3550   -5.6440 C   0  0  0  0  0  0  0  0  0  0  0  0
   -0.3690   17.4670   -6.4490 O   0  0  0  0  0  0  0  0  0  0  0  0
   -1.5480   18.4510   -6.0460 P   0  0  2  0  0  0  0  0  0  0  0  0
   -1.1090   19.8570   -6.6000 O   0  0  0  0  0  0  0  0  0  0  0  0
   -2.0180   18.4050   -4.6530 O   0  0  0  0  0  0  0  0  0  0  0  0
   -2.7140   18.0060   -7.0320 O   0  0  0  0  0  0  0  0  0  0  0  0
   -0.4180   20.0080   -8.0000 P   0  0  0  0  0  0  0  0  0  0  0  0
   -1.4990   20.8960   -8.7550 O   0  0  0  0  0  0  0  0  0  0  0  0
   -0.0610   18.7680   -8.7530 O   0  0  0  0  0  0  0  0  0  0  0  0
    0.7600   21.0700   -7.8160 O   0  0  0  0  0  0  0  0  0  0  0  0
  2  1  1  1
  2  3  1  0
  2  4  1  0
  4  5  1  1
  3  6  1  0
  4  7  1  0
  6  7  1  0
  7  8  1  6
  8  9  1  0
  9 10  1  0
 10 11  1  0
 11 12  1  0
 11 13  2  0
 11 14  1  6
 12 15  1  0
 15 16  1  0
 15 17  2  0
 15 18  1  0
M  END
>  <%Rank>  (80) 
6.030534

>  <N_hits>  (80) 
2

>  <submitter_name>  (80) 
nan

>  <original SMILES>  (80) 
nan

>  <∆G_unbound>  (80) 
1.594509

>  <∆G_bound>  (80) 
-11.21624

>  <regarded>  (80) 
3Q6Z_0_A_γ,mArh-6fx_7_0A_β

>  <ref_pdb>  (80) 
nan

>  <smiles>  (80) 
O=P(O)(O)OP(=O)(O)OCCC1OCC(O)C1O

>  <submitter_email>  (80) 
nan

>  <disregarded>  (80) 


>  <LE>  (80) 
-0.711708

>  <submitter_institution>  (80) 
nan

>  <ref_mols>  (80) 
3Q6Z_0_A,mArh-6fx_7_0A

>  <N_constrained_atoms>  (80) 
17.0

>  <ref_url>  (80) 
nan

>  <method>  (80) 
nan

>  <comRMSD>  (80) 
0.533819

>  <N_unconstrained_atoms>  (80) 
1.0

>  <∆∆G>  (80) 
-12.810748

>  <runtime>  (80) 
33.271977

>  <generation_date>  (80) 
nan

$$$$
mArh-EU0342_0_A_α-mArh-x0471_0_A_α
     RDKit          3D

 21 22  0  0  0  0  0  0  0  0999 V2000
    0.4580   14.8370   -0.1750 C   0  0  0  0  0  0  0  0  0  0  0  0
   -0.9440   14.7440   -0.4250 N   0  0  0  0  0  0  0  0  0  0  0  0
   -1.8270   14.8470    0.6200 C   0  0  0  0  0  0  0  0  0  0  0  0
   -1.5080   14.6120    1.7880 O   0  0  0  0  0  0  0  0  0  0  0  0
   -3.2350   15.2840    0.2250 C   0  0  2  0  0  0  0  0  0  0  0  0
   -4.2400   14.6970    1.1600 C   0  0  0  0  0  0  0  0  0  0  0  0
   -3.6100   14.9960   -1.2090 C   0  0  0  0  0  0  0  0  0  0  0  0
   -5.5390   15.2810    0.8410 N   0  0  0  0  0  0  0  0  0  0  0  0
   -4.9180   14.8620   -1.5300 C   0  0  0  0  0  0  0  0  0  0  0  0
   -6.0170   14.9930   -0.5090 C   0  0  2  0  0  0  0  0  0  0  0  0
   -6.4700   14.7260    1.7990 N   0  0  0  0  0  0  0  0  0  0  0  0
   -6.8300   16.0370   -0.9660 O   0  0  0  0  0  0  0  0  0  0  0  0
   -6.9160   13.8810   -0.3890 N   0  0  0  0  0  0  0  0  0  0  0  0
   -7.3130   13.8140    1.0360 C   0  0  2  0  0  0  0  0  0  0  0  0
   -8.7850   14.2030    1.2990 C   0  0  0  0  0  0  0  0  0  0  0  0
   -9.1820   13.9770    2.6900 N   0  0  0  0  0  0  0  0  0  0  0  0
   -9.0630   14.9570    3.6580 C   0  0  0  0  0  0  0  0  0  0  0  0
   -9.2420   16.1470    3.4220 O   0  0  0  0  0  0  0  0  0  0  0  0
   -8.7060   14.4170    5.0440 C   0  0  0  0  0  0  0  0  0  0  0  0
   -9.8860   13.6460    5.6410 C   0  0  0  0  0  0  0  0  0  0  0  0
   -8.2850   15.5510    5.9770 C   0  0  0  0  0  0  0  0  0  0  0  0
  1  2  1  0
  2  3  1  0
  3  4  2  0
  5  3  1  1
  5  6  1  0
  5  7  1  0
  6  8  1  0
  7  9  2  0
  8 10  1  0
  9 10  1  0
  8 11  1  0
 10 12  1  6
 10 13  1  0
 11 14  1  0
 13 14  1  0
 14 15  1  6
 15 16  1  0
 16 17  1  0
 17 18  2  0
 17 19  1  0
 19 20  1  0
 19 21  1  0
M  END
>  <%Rank>  (81) 
6.10687

>  <N_hits>  (81) 
2

>  <submitter_name>  (81) 
nan

>  <original SMILES>  (81) 
nan

>  <∆G_unbound>  (81) 
0.949615

>  <∆G_bound>  (81) 
-5.349118

>  <regarded>  (81) 
mArh-EU0342_0_A_α,mArh-x0471_0_A_α

>  <ref_pdb>  (81) 
nan

>  <smiles>  (81) 
CNC(=O)C1C=CC2(O)NC(CNC(=O)C(C)C)NN2C1

>  <submitter_email>  (81) 
nan

>  <disregarded>  (81) 


>  <LE>  (81) 
-0.29994

>  <submitter_institution>  (81) 
nan

>  <ref_mols>  (81) 
mArh-EU0342_0_A,mArh-x0471_0_A

>  <N_constrained_atoms>  (81) 
21.0

>  <ref_url>  (81) 
nan

>  <method>  (81) 
nan

>  <comRMSD>  (81) 
0.436596

>  <N_unconstrained_atoms>  (81) 
0.0

>  <∆∆G>  (81) 
-6.298733

>  <runtime>  (81) 
29.916123

>  <generation_date>  (81) 
nan

$$$$
mArh-6mea_B_0_B_β-mArh-6mea_A_0_A_β
     RDKit          3D

  9  8  0  0  0  0  0  0  0  0999 V2000
   -1.5290   20.3230   -8.0160 O   0  0  0  0  0  0  0  0  0  0  0  0
   -0.0970   19.7330   -7.6230 P   0  0  0  0  0  0  0  0  0  0  0  0
   -0.2830   18.8770   -6.3330 O   0  0  0  0  0  0  0  0  0  0  0  0
    0.9850   20.7600   -7.5920 O   0  0  0  0  0  0  0  0  0  0  0  0
    0.1180   18.6200   -8.7550 O   0  0  0  0  0  0  0  0  0  0  0  0
   -1.5850   18.1440   -5.8500 P   0  0  0  0  0  0  0  0  0  0  0  0
   -1.0670   16.8000   -5.1750 O   0  0  0  0  0  0  0  0  0  0  0  0
   -2.6190   17.9350   -6.8910 O   0  0  0  0  0  0  0  0  0  0  0  0
   -2.0350   19.0500   -4.6340 O   0  0  0  0  0  0  0  0  0  0  0  0
  1  2  1  0
  2  3  1  0
  2  4  2  0
  2  5  1  0
  3  6  1  0
  6  7  1  0
  6  8  2  0
  6  9  1  0
M  END
>  <%Rank>  (82) 
6.183206

>  <N_hits>  (82) 
2

>  <submitter_name>  (82) 
nan

>  <original SMILES>  (82) 
nan

>  <∆G_unbound>  (82) 
0.687887

>  <∆G_bound>  (82) 
-8.36929

>  <regarded>  (82) 
mArh-6mea_B_0_B_β,mArh-6mea_A_0_A_β

>  <ref_pdb>  (82) 
nan

>  <smiles>  (82) 
O=P(O)(O)OP(=O)(O)O

>  <submitter_email>  (82) 
nan

>  <disregarded>  (82) 


>  <LE>  (82) 
-1.006353

>  <submitter_institution>  (82) 
nan

>  <ref_mols>  (82) 
mArh-6mea_B_0_B,mArh-6mea_A_0_A

>  <N_constrained_atoms>  (82) 
9.0

>  <ref_url>  (82) 
nan

>  <method>  (82) 
nan

>  <comRMSD>  (82) 
0.488927

>  <N_unconstrained_atoms>  (82) 
0.0

>  <∆∆G>  (82) 
-9.057177

>  <runtime>  (82) 
24.411266

>  <generation_date>  (82) 
nan

$$$$
6WOJ_0_D_α-mArh-6woj_D_0_D_β
     RDKit          3D

 17 17  0  0  0  0  0  0  0  0999 V2000
   -1.5850   21.5240   -7.2100 C   0  0  0  0  0  0  0  0  0  0  0  0
   -0.3590   20.2660   -7.6340 P   0  0  2  0  0  0  0  0  0  0  0  0
   -0.2070   19.2200   -6.4440 O   0  0  0  0  0  0  0  0  0  0  0  0
   -2.8140   21.8920   -8.0460 C   0  0  1  0  0  0  0  0  0  0  0  0
    0.9690   20.8760   -7.8840 O   0  0  0  0  0  0  0  0  0  0  0  0
   -0.8570   19.2260   -8.7510 O   0  0  0  0  0  0  0  0  0  0  0  0
   -3.9360   21.1730   -7.5410 O   0  0  0  0  0  0  0  0  0  0  0  0
   -3.2990   23.3620   -7.9050 C   0  0  1  0  0  0  0  0  0  0  0  0
   -4.1510   23.7860   -8.9810 O   0  0  0  0  0  0  0  0  0  0  0  0
   -1.3500   18.3720   -5.7420 P   0  0  0  0  0  0  0  0  0  0  0  0
   -4.4070   21.8640   -6.3810 C   0  0  1  0  0  0  0  0  0  0  0  0
   -4.0750   23.3530   -6.5690 C   0  0  2  0  0  0  0  0  0  0  0  0
   -5.7950   21.6320   -6.1890 O   0  0  0  0  0  0  0  0  0  0  0  0
   -5.3000   24.1160   -6.6340 O   0  0  0  0  0  0  0  0  0  0  0  0
   -0.7060   16.9320   -5.5270 O   0  0  0  0  0  0  0  0  0  0  0  0
   -1.8930   18.9690   -4.5100 O   0  0  0  0  0  0  0  0  0  0  0  0
   -2.4530   18.0810   -6.8600 O   0  0  0  0  0  0  0  0  0  0  0  0
  1  2  1  0
  2  3  1  0
  4  1  1  1
  2  5  2  0
  2  6  1  6
  4  7  1  0
  4  8  1  0
  8  9  1  6
  3 10  1  0
  7 11  1  0
  8 12  1  0
 11 12  1  0
 11 13  1  6
 12 14  1  6
 10 15  1  0
 10 16  2  0
 10 17  1  0
M  END
>  <%Rank>  (83) 
6.259542

>  <N_hits>  (83) 
2

>  <submitter_name>  (83) 
nan

>  <original SMILES>  (83) 
nan

>  <∆G_unbound>  (83) 
1.703844

>  <∆G_bound>  (83) 
-13.115276

>  <regarded>  (83) 
6WOJ_0_D_α,mArh-6woj_D_0_D_β

>  <ref_pdb>  (83) 
nan

>  <smiles>  (83) 
O=P(O)(O)OP(=O)(O)CC1OC(O)C(O)C1O

>  <submitter_email>  (83) 
nan

>  <disregarded>  (83) 


>  <LE>  (83) 
-0.871713

>  <submitter_institution>  (83) 
nan

>  <ref_mols>  (83) 
6WOJ_0_D,mArh-6woj_D_0_D

>  <N_constrained_atoms>  (83) 
17.0

>  <ref_url>  (83) 
nan

>  <method>  (83) 
nan

>  <comRMSD>  (83) 
0.649283

>  <N_unconstrained_atoms>  (83) 
0.0

>  <∆∆G>  (83) 
-14.819121

>  <runtime>  (83) 
37.404537

>  <generation_date>  (83) 
nan

$$$$
mArh-5cb5_G_0_G_β-2FAV_0_B_δ
     RDKit          3D

 21 22  0  0  0  0  0  0  0  0999 V2000
   -1.5550   20.4840   -8.4470 O   0  0  0  0  0  0  0  0  0  0  0  0
   -0.2410   19.8470   -7.8280 P   0  0  0  0  0  0  0  0  0  0  0  0
   -0.5380   19.1890   -6.4380 O   0  0  0  0  0  0  0  0  0  0  0  0
    0.9120   20.7780   -7.8200 O   0  0  0  0  0  0  0  0  0  0  0  0
   -0.0140   18.5830   -8.7820 O   0  0  0  0  0  0  0  0  0  0  0  0
   -1.8730   18.5180   -5.9840 P   0  0  2  0  0  0  0  0  0  0  0  0
   -1.5480   17.7070   -4.6600 O   0  0  0  0  0  0  0  0  0  0  0  0
   -2.6980   17.7920   -6.9760 O   0  0  0  0  0  0  0  0  0  0  0  0
   -2.6260   19.7200   -5.2620 O   0  0  0  0  0  0  0  0  0  0  0  0
   -1.7620   16.3050   -4.6360 C   0  0  0  0  0  0  0  0  0  0  0  0
   -2.7300   15.9640   -3.5160 C   0  0  0  0  0  0  0  0  0  0  0  0
   -2.6510   14.6480   -2.7760 C   0  0  1  0  0  0  0  0  0  0  0  0
   -1.3000   14.3810   -2.2910 N   0  0  0  0  0  0  0  0  0  0  0  0
   -3.5790   14.6300   -1.6150 N   0  0  0  0  0  0  0  0  0  0  0  0
   -1.3910   14.6830   -0.8850 C   0  0  1  0  0  0  0  0  0  0  0  0
   -2.7070   14.0380   -0.5610 C   0  0  1  0  0  0  0  0  0  0  0  0
   -0.3190   14.0320   -0.1700 N   0  0  0  0  0  0  0  0  0  0  0  0
   -2.9720   14.3250    0.9260 C   0  0  2  0  0  0  0  0  0  0  0  0
   -4.1180   15.1470    1.2500 N   0  0  0  0  0  0  0  0  0  0  0  0
   -0.5300   14.2570    1.2620 C   0  0  0  0  0  0  0  0  0  0  0  0
   -1.8020   14.9390    1.5210 N   0  0  0  0  0  0  0  0  0  0  0  0
  1  2  1  0
  2  3  1  0
  2  4  2  0
  2  5  1  0
  3  6  1  0
  6  7  1  0
  6  8  2  0
  6  9  1  1
  7 10  1  0
 10 11  1  0
 12 11  1  1
 12 13  1  0
 12 14  1  0
 15 13  1  6
 16 14  1  6
 15 16  1  0
 15 17  1  0
 16 18  1  0
 18 19  1  6
 17 20  1  0
 18 21  1  0
 20 21  1  0
M  END
>  <%Rank>  (84) 
6.335878

>  <N_hits>  (84) 
2

>  <submitter_name>  (84) 
nan

>  <original SMILES>  (84) 
nan

>  <∆G_unbound>  (84) 
4.513874

>  <∆G_bound>  (84) 
-10.390868

>  <regarded>  (84) 
mArh-5cb5_G_0_G_β,2FAV_0_B_δ

>  <ref_pdb>  (84) 
nan

>  <smiles>  (84) 
NC1NCNC2NC(CCOP(=O)(O)OP(=O)(O)O)NC12

>  <submitter_email>  (84) 
nan

>  <disregarded>  (84) 


>  <LE>  (84) 
-0.70975

>  <submitter_institution>  (84) 
nan

>  <ref_mols>  (84) 
mArh-5cb5_G_0_G,2FAV_0_B

>  <N_constrained_atoms>  (84) 
19.0

>  <ref_url>  (84) 
nan

>  <method>  (84) 
nan

>  <comRMSD>  (84) 
0.557695

>  <N_unconstrained_atoms>  (84) 
2.0

>  <∆∆G>  (84) 
-14.904742

>  <runtime>  (84) 
25.663519

>  <generation_date>  (84) 
nan

$$$$
mArh-6woj_A_0_A_γ-MAC-194_0_A_α
     RDKit          3D

 22 24  0  0  0  0  0  0  0  0999 V2000
   -0.5020   12.5100   -4.4700 O   0  0  0  0  0  0  0  0  0  0  0  0
   -0.2420   13.8530   -4.8500 C   0  0  1  0  0  0  0  0  0  0  0  0
   -0.4930   14.8960   -3.7660 C   0  0  1  0  0  0  0  0  0  0  0  0
    1.2130   14.0870   -5.1820 C   0  0  2  0  0  0  0  0  0  0  0  0
    1.9960   12.9730   -4.7880 O   0  0  0  0  0  0  0  0  0  0  0  0
   -1.3840   14.3990   -2.6810 C   0  0  0  0  0  0  0  0  0  0  0  0
    0.7720   15.3060   -3.2700 O   0  0  0  0  0  0  0  0  0  0  0  0
    1.5090   15.4100   -4.4740 C   0  0  2  0  0  0  0  0  0  0  0  0
    1.0160   16.6710   -5.1850 C   0  0  0  0  0  0  0  0  0  0  0  0
   -2.8150   14.7790   -2.9910 C   0  0  0  0  0  0  0  0  0  0  0  0
   -3.5890   14.7570   -1.7500 C   0  0  0  0  0  0  0  0  0  0  0  0
   -2.9000   14.6990   -0.5330 C   0  0  0  0  0  0  0  0  0  0  0  0
   -4.9720   14.7870   -1.7830 C   0  0  0  0  0  0  0  0  0  0  0  0
   -5.6590   14.7540   -0.5840 C   0  0  0  0  0  0  0  0  0  0  0  0
   -3.5970   14.6710    0.6560 C   0  0  0  0  0  0  0  0  0  0  0  0
   -7.1270   14.7720   -0.5480 C   0  0  0  0  0  0  0  0  0  0  0  0
   -4.9830   14.6970    0.6320 C   0  0  0  0  0  0  0  0  0  0  0  0
   -7.8030   14.9110   -1.5590 O   0  0  0  0  0  0  0  0  0  0  0  0
   -7.6860   14.6130    0.6990 N   0  0  0  0  0  0  0  0  0  0  0  0
   -5.6550   14.6630    1.8390 N   0  0  0  0  0  0  0  0  0  0  0  0
   -6.9380   14.6190    1.8410 C   0  0  0  0  0  0  0  0  0  0  0  0
   -7.5680   14.5780    3.0330 N   0  0  0  0  0  0  0  0  0  0  0  0
  2  1  1  1
  2  3  1  0
  2  4  1  0
  4  5  1  1
  3  6  1  1
  3  7  1  0
  4  8  1  0
  7  8  1  0
  8  9  1  6
  6 10  1  0
 10 11  1  0
 11 12  2  0
 11 13  1  0
 13 14  2  0
 12 15  1  0
 14 16  1  0
 14 17  1  0
 15 17  2  0
 16 18  2  0
 16 19  1  0
 17 20  1  0
 19 21  1  0
 20 21  2  0
 21 22  1  0
M  END
>  <%Rank>  (85) 
6.412214

>  <N_hits>  (85) 
2

>  <submitter_name>  (85) 
nan

>  <original SMILES>  (85) 
nan

>  <∆G_unbound>  (85) 
0.352467

>  <∆G_bound>  (85) 
-6.362711

>  <regarded>  (85) 
mArh-6woj_A_0_A_γ,MAC-194_0_A_α

>  <ref_pdb>  (85) 
nan

>  <smiles>  (85) 
CC1OC(CCc2ccc3nc(N)[nH]c(=O)c3c2)C(O)C1O

>  <submitter_email>  (85) 
nan

>  <disregarded>  (85) 


>  <LE>  (85) 
-0.305235

>  <submitter_institution>  (85) 
nan

>  <ref_mols>  (85) 
mArh-6woj_A_0_A,MAC-194_0_A

>  <N_constrained_atoms>  (85) 
20.0

>  <ref_url>  (85) 
nan

>  <method>  (85) 
nan

>  <comRMSD>  (85) 
0.377566

>  <N_unconstrained_atoms>  (85) 
2.0

>  <∆∆G>  (85) 
-6.715177

>  <runtime>  (85) 
42.172594

>  <generation_date>  (85) 
nan

$$$$
mArh-x0421_0_A_α-mArh-5cb5_M_1_M_β
     RDKit          3D

 23 24  0  0  0  0  0  0  0  0999 V2000
   -3.7720   15.2770   -3.0130 N   0  0  0  0  0  0  0  0  0  0  0  0
   -2.8720   14.9820   -2.0270 C   0  0  0  0  0  0  0  0  0  0  0  0
   -1.6250   14.8240   -2.3330 N   0  0  0  0  0  0  0  0  0  0  0  0
   -3.4910   14.8960   -0.6970 C   0  0  0  0  0  0  0  0  0  0  0  0
   -1.1570   14.9640   -3.7250 C   0  0  0  0  0  0  0  0  0  0  0  0
   -2.8220   14.8680    0.5150 C   0  0  0  0  0  0  0  0  0  0  0  0
   -4.8590   14.8270   -0.4610 N   0  0  0  0  0  0  0  0  0  0  0  0
    0.1410   15.7850   -3.8020 C   0  0  0  0  0  0  0  0  0  0  0  0
   -3.7900   14.7780    1.4620 N   0  0  0  0  0  0  0  0  0  0  0  0
   -4.9970   14.7550    0.8420 C   0  0  0  0  0  0  0  0  0  0  0  0
    0.0140   17.0440   -4.6640 C   0  0  0  0  0  0  0  0  0  0  0  0
   -6.3510   14.6500    1.6040 C   0  0  0  0  0  0  0  0  0  0  0  0
   -1.2830   17.1000   -5.2550 O   0  0  0  0  0  0  0  0  0  0  0  0
   -7.6500   14.6460    0.8450 C   0  0  0  0  0  0  0  0  0  0  0  0
   -7.1420   13.3800    1.4720 C   0  0  0  0  0  0  0  0  0  0  0  0
   -1.7450   18.4330   -6.0060 P   0  0  1  0  0  0  0  0  0  0  0  0
   -0.5000   19.2580   -6.4540 O   0  0  0  0  0  0  0  0  0  0  0  0
   -2.7460   18.2060   -7.0670 O   0  0  0  0  0  0  0  0  0  0  0  0
   -2.3320   19.3800   -4.8600 O   0  0  0  0  0  0  0  0  0  0  0  0
   -0.2160   19.7220   -7.9130 P   0  0  0  0  0  0  0  0  0  0  0  0
   -1.5090   20.5320   -8.3890 O   0  0  0  0  0  0  0  0  0  0  0  0
    0.1300   18.6660   -8.8810 O   0  0  0  0  0  0  0  0  0  0  0  0
    0.8530   20.8940   -7.7930 O   0  0  0  0  0  0  0  0  0  0  0  0
  1  2  1  0
  2  3  2  3
  2  4  1  0
  3  5  1  0
  4  6  2  0
  4  7  1  0
  5  8  1  0
  6  9  1  0
  7 10  2  0
  9 10  1  0
  8 11  1  0
 10 12  1  0
 11 13  1  0
 12 14  1  0
 12 15  1  0
 14 15  1  0
 13 16  1  0
 16 17  1  0
 16 18  2  0
 16 19  1  1
 17 20  1  0
 20 21  1  0
 20 22  2  0
 20 23  1  0
M  END
>  <%Rank>  (86) 
6.48855

>  <N_hits>  (86) 
2

>  <submitter_name>  (86) 
nan

>  <original SMILES>  (86) 
nan

>  <∆G_unbound>  (86) 
0.604802

>  <∆G_bound>  (86) 
-12.007208

>  <regarded>  (86) 
mArh-x0421_0_A_α,mArh-5cb5_M_1_M_β

>  <ref_pdb>  (86) 
nan

>  <smiles>  (86) 
NC(=NCCCOP(=O)(O)OP(=O)(O)O)c1c[nH]c(C2CC2)n1

>  <submitter_email>  (86) 
nan

>  <disregarded>  (86) 


>  <LE>  (86) 
-0.548348

>  <submitter_institution>  (86) 
nan

>  <ref_mols>  (86) 
mArh-x0421_0_A,mArh-5cb5_M_1_M

>  <N_constrained_atoms>  (86) 
20.0

>  <ref_url>  (86) 
nan

>  <method>  (86) 
nan

>  <comRMSD>  (86) 
0.474179

>  <N_unconstrained_atoms>  (86) 
3.0

>  <∆∆G>  (86) 
-12.61201

>  <runtime>  (86) 
26.148013

>  <generation_date>  (86) 
nan

$$$$
mArh-5l9k_B_0_B_γ-mArh-5fud_B_0_B_α
     RDKit          3D

 21 22  0  0  0  0  0  0  0  0999 V2000
   -2.4220   13.0930   -4.6350 O   0  0  0  0  0  0  0  0  0  0  0  0
   -1.8540   14.3860   -4.4610 C   0  0  1  0  0  0  0  0  0  0  0  0
   -1.5440   14.7280   -3.0160 C   0  0  0  0  0  0  0  0  0  0  0  0
   -0.4420   14.3760   -4.9910 C   0  0  2  0  0  0  0  0  0  0  0  0
    0.3280   13.3230   -4.4150 O   0  0  0  0  0  0  0  0  0  0  0  0
   -0.4470   15.6760   -3.1050 O   0  0  0  0  0  0  0  0  0  0  0  0
   -0.0350   15.7550   -4.4940 C   0  0  2  0  0  0  0  0  0  0  0  0
   -0.7710   16.9410   -5.1570 C   0  0  0  0  0  0  0  0  0  0  0  0
    0.0650   18.0350   -5.8260 C   0  0  0  0  0  0  0  0  0  0  0  0
   -0.8590   19.0370   -6.4230 N   0  0  0  0  0  0  0  0  0  0  0  0
   -0.3980   19.7500   -7.9010 S   0  0  1  0  0  0  0  0  0  0  0  0
    0.6550   20.7160   -7.6850 O   0  0  0  0  0  0  0  0  0  0  0  0
   -0.2170   18.6390   -8.8360 O   0  0  0  0  0  0  0  0  0  0  0  0
   -1.9100   20.6380   -8.2660 C   0  0  0  0  0  0  0  0  0  0  0  0
   -2.0900   22.0590   -7.7980 C   0  0  0  0  0  0  0  0  0  0  0  0
   -3.5320   22.4180   -7.8110 N   0  0  0  0  0  0  0  0  0  0  0  0
   -4.1070   22.6170   -9.1520 C   0  0  0  0  0  0  0  0  0  0  0  0
   -3.8840   23.5650   -6.9820 C   0  0  0  0  0  0  0  0  0  0  0  0
   -5.6390   22.7560   -9.0740 C   0  0  0  0  0  0  0  0  0  0  0  0
   -5.3880   23.7810   -6.9140 C   0  0  0  0  0  0  0  0  0  0  0  0
   -6.0730   23.7860   -8.1750 O   0  0  0  0  0  0  0  0  0  0  0  0
  2  1  1  1
  2  3  1  0
  2  4  1  0
  4  5  1  1
  3  6  1  0
  4  7  1  0
  6  7  1  0
  7  8  1  6
  8  9  1  0
  9 10  1  0
 10 11  2  0
 11 12  2  0
 11 13  1  6
 11 14  1  0
 14 15  1  0
 15 16  1  0
 16 17  1  0
 16 18  1  0
 17 19  1  0
 18 20  1  0
 19 21  1  0
 20 21  1  0
M  CHG  1  13  -1
M  END
>  <%Rank>  (87) 
6.564885

>  <N_hits>  (87) 
2

>  <submitter_name>  (87) 
nan

>  <original SMILES>  (87) 
nan

>  <∆G_unbound>  (87) 
0.592808

>  <∆G_bound>  (87) 
-14.865103

>  <regarded>  (87) 
mArh-5l9k_B_0_B_γ,mArh-5fud_B_0_B_α

>  <ref_pdb>  (87) 
nan

>  <smiles>  (87) 
O=S([O-])(CCN1CCOCC1)=NCCC1OCC(O)C1O

>  <submitter_email>  (87) 
nan

>  <disregarded>  (87) 


>  <LE>  (87) 
-0.736091

>  <submitter_institution>  (87) 
nan

>  <ref_mols>  (87) 
mArh-5l9k_B_0_B,mArh-5fud_B_0_B

>  <N_constrained_atoms>  (87) 
20.0

>  <ref_url>  (87) 
nan

>  <method>  (87) 
nan

>  <comRMSD>  (87) 
0.619306

>  <N_unconstrained_atoms>  (87) 
1.0

>  <∆∆G>  (87) 
-15.457911

>  <runtime>  (87) 
44.147056

>  <generation_date>  (87) 
nan

$$$$
mArh-x0722_0_A_α-5CB5_0_M_γ
     RDKit          3D

 20 21  0  0  0  0  0  0  0  0999 V2000
   -4.4850   15.7200    2.0130 C   0  0  0  0  0  0  0  0  0  0  0  0
   -3.4000   15.2310    1.1800 C   0  0  0  0  0  0  0  0  0  0  0  0
   -2.2730   14.9350    1.7840 N   0  0  0  0  0  0  0  0  0  0  0  0
   -3.3480   15.0210   -0.2260 C   0  0  0  0  0  0  0  0  0  0  0  0
   -4.4750   15.2650   -1.1890 C   0  0  0  0  0  0  0  0  0  0  0  0
   -2.0290   14.5610   -0.4300 C   0  0  0  0  0  0  0  0  0  0  0  0
   -1.4680   14.5440    0.8200 N   0  0  0  0  0  0  0  0  0  0  0  0
   -0.1390   14.1620    1.1920 C   0  0  0  0  0  0  0  0  0  0  0  0
   -1.1870   14.1270   -1.6100 C   0  0  0  0  0  0  0  0  0  0  0  0
   -5.8110   14.7100   -0.7040 C   0  0  0  0  0  0  0  0  0  0  0  0
   -6.8800   15.3060   -0.8110 O   0  0  0  0  0  0  0  0  0  0  0  0
   -5.7760   13.4730   -0.1250 N   0  0  0  0  0  0  0  0  0  0  0  0
   -1.4410   14.7280   -3.0090 C   0  0  1  0  0  0  0  0  0  0  0  0
   -0.4750   15.7730   -3.3020 O   0  0  0  0  0  0  0  0  0  0  0  0
   -1.2570   13.7030   -4.1560 C   0  0  2  0  0  0  0  0  0  0  0  0
   -0.6380   12.5050   -3.6710 O   0  0  0  0  0  0  0  0  0  0  0  0
   -0.4530   15.8290   -4.7370 C   0  0  2  0  0  0  0  0  0  0  0  0
   -0.2880   14.3640   -5.1290 C   0  0  1  0  0  0  0  0  0  0  0  0
    0.5780   16.8180   -5.2480 C   0  0  0  0  0  0  0  0  0  0  0  0
    1.0330   13.8600   -4.9380 O   0  0  0  0  0  0  0  0  0  0  0  0
  1  2  1  0
  2  3  2  0
  2  4  1  0
  4  5  1  0
  4  6  2  0
  3  7  1  0
  6  7  1  0
  7  8  1  0
  6  9  1  0
  5 10  1  0
 10 11  2  0
 10 12  1  0
 13  9  1  1
 13 14  1  0
 13 15  1  0
 15 16  1  1
 14 17  1  0
 15 18  1  0
 17 18  1  0
 17 19  1  1
 18 20  1  1
M  END
>  <%Rank>  (88) 
6.641221

>  <N_hits>  (88) 
2

>  <submitter_name>  (88) 
nan

>  <original SMILES>  (88) 
nan

>  <∆G_unbound>  (88) 
0.815103

>  <∆G_bound>  (88) 
-6.702838

>  <regarded>  (88) 
mArh-x0722_0_A_α,5CB5_0_M_γ

>  <ref_pdb>  (88) 
nan

>  <smiles>  (88) 
Cc1nn(C)c(CC2OC(C)C(O)C2O)c1CC(N)=O

>  <submitter_email>  (88) 
nan

>  <disregarded>  (88) 


>  <LE>  (88) 
-0.375897

>  <submitter_institution>  (88) 
nan

>  <ref_mols>  (88) 
mArh-x0722_0_A,5CB5_0_M

>  <N_constrained_atoms>  (88) 
20.0

>  <ref_url>  (88) 
nan

>  <method>  (88) 
nan

>  <comRMSD>  (88) 
0.465855

>  <N_unconstrained_atoms>  (88) 
0.0

>  <∆∆G>  (88) 
-7.517941

>  <runtime>  (88) 
33.276125

>  <generation_date>  (88) 
nan

$$$$
mArh-6mea_B_0_B_γ-mArh-6woj_A_0_A_β
     RDKit          3D

 16 16  0  0  0  0  0  0  0  0999 V2000
   -1.9510   12.9650   -4.2290 O   0  0  0  0  0  0  0  0  0  0  0  0
   -0.6230   13.3790   -3.9710 C   0  0  2  0  0  0  0  0  0  0  0  0
   -0.4870   14.2510   -2.7150 C   0  0  0  0  0  0  0  0  0  0  0  0
   -0.0810   14.2670   -5.0700 C   0  0  2  0  0  0  0  0  0  0  0  0
    1.3390   14.0520   -5.0880 O   0  0  0  0  0  0  0  0  0  0  0  0
   -0.0640   15.5620   -3.1410 O   0  0  0  0  0  0  0  0  0  0  0  0
   -0.4880   15.6220   -4.5100 C   0  0  1  0  0  0  0  0  0  0  0  0
    0.0970   16.8490   -5.1620 C   0  0  0  0  0  0  0  0  0  0  0  0
   -1.0890   18.1250   -5.6180 P   0  0  2  0  0  0  0  0  0  0  0  0
   -0.1710   19.1890   -6.2920 O   0  0  0  0  0  0  0  0  0  0  0  0
   -1.7700   18.7290   -4.4470 O   0  0  0  0  0  0  0  0  0  0  0  0
   -2.1590   17.5880   -6.6960 O   0  0  0  0  0  0  0  0  0  0  0  0
    0.0020   19.8680   -7.6660 P   0  0  0  0  0  0  0  0  0  0  0  0
   -1.4560   20.3900   -8.0280 O   0  0  0  0  0  0  0  0  0  0  0  0
    1.0790   20.8950   -7.6940 O   0  0  0  0  0  0  0  0  0  0  0  0
    0.1550   18.6530   -8.7010 O   0  0  0  0  0  0  0  0  0  0  0  0
  2  1  1  6
  2  3  1  0
  2  4  1  0
  4  5  1  1
  3  6  1  0
  4  7  1  0
  6  7  1  0
  7  8  1  6
  8  9  1  0
  9 10  1  0
  9 11  2  0
  9 12  1  6
 10 13  1  0
 13 14  1  0
 13 15  2  0
 13 16  1  0
M  END
>  <%Rank>  (89) 
6.717557

>  <N_hits>  (89) 
2

>  <submitter_name>  (89) 
nan

>  <original SMILES>  (89) 
nan

>  <∆G_unbound>  (89) 
1.057928

>  <∆G_bound>  (89) 
-9.270215

>  <regarded>  (89) 
mArh-6mea_B_0_B_γ,mArh-6woj_A_0_A_β

>  <ref_pdb>  (89) 
nan

>  <smiles>  (89) 
O=P(O)(O)OP(=O)(O)CC1OCC(O)C1O

>  <submitter_email>  (89) 
nan

>  <disregarded>  (89) 


>  <LE>  (89) 
-0.645509

>  <submitter_institution>  (89) 
nan

>  <ref_mols>  (89) 
mArh-6mea_B_0_B,mArh-6woj_A_0_A

>  <N_constrained_atoms>  (89) 
16.0

>  <ref_url>  (89) 
nan

>  <method>  (89) 
nan

>  <comRMSD>  (89) 
0.518118

>  <N_unconstrained_atoms>  (89) 
0.0

>  <∆∆G>  (89) 
-10.328143

>  <runtime>  (89) 
28.663057

>  <generation_date>  (89) 
nan

$$$$
5CMS_0_E_γ-mArh-6woj_B_0_B_β
     RDKit          3D

 16 16  0  0  0  0  0  0  0  0999 V2000
   -1.5770   12.2780   -4.2090 O   0  0  0  0  0  0  0  0  0  0  0  0
   -0.4720   13.1260   -3.9610 C   0  0  2  0  0  0  0  0  0  0  0  0
   -0.7100   14.1150   -2.8170 C   0  0  0  0  0  0  0  0  0  0  0  0
   -0.1220   14.0110   -5.1580 C   0  0  2  0  0  0  0  0  0  0  0  0
    1.3000   13.8770   -5.3170 O   0  0  0  0  0  0  0  0  0  0  0  0
   -0.2420   15.3920   -3.2660 O   0  0  0  0  0  0  0  0  0  0  0  0
   -0.5740   15.4000   -4.6630 C   0  0  1  0  0  0  0  0  0  0  0  0
    0.0480   16.6400   -5.2820 C   0  0  0  0  0  0  0  0  0  0  0  0
   -1.0890   18.0150   -5.6420 P   0  0  2  0  0  0  0  0  0  0  0  0
   -0.1840   19.1320   -6.2750 O   0  0  0  0  0  0  0  0  0  0  0  0
   -1.7290   18.5490   -4.4180 O   0  0  0  0  0  0  0  0  0  0  0  0
   -2.2160   17.5940   -6.7210 O   0  0  0  0  0  0  0  0  0  0  0  0
   -0.0070   19.8670   -7.6350 P   0  0  0  0  0  0  0  0  0  0  0  0
   -1.4490   20.4410   -7.9860 O   0  0  0  0  0  0  0  0  0  0  0  0
    1.0890   20.8790   -7.6460 O   0  0  0  0  0  0  0  0  0  0  0  0
    0.1160   18.6950   -8.7220 O   0  0  0  0  0  0  0  0  0  0  0  0
  2  1  1  6
  2  3  1  0
  2  4  1  0
  4  5  1  1
  3  6  1  0
  4  7  1  0
  6  7  1  0
  7  8  1  6
  8  9  1  0
  9 10  1  0
  9 11  2  0
  9 12  1  6
 10 13  1  0
 13 14  1  0
 13 15  2  0
 13 16  1  0
M  END
>  <%Rank>  (90) 
6.793893

>  <N_hits>  (90) 
2

>  <submitter_name>  (90) 
nan

>  <original SMILES>  (90) 
nan

>  <∆G_unbound>  (90) 
1.057928

>  <∆G_bound>  (90) 
-9.67837

>  <regarded>  (90) 
5CMS_0_E_γ,mArh-6woj_B_0_B_β

>  <ref_pdb>  (90) 
nan

>  <smiles>  (90) 
O=P(O)(O)OP(=O)(O)CC1OCC(O)C1O

>  <submitter_email>  (90) 
nan

>  <disregarded>  (90) 


>  <LE>  (90) 
-0.671019

>  <submitter_institution>  (90) 
nan

>  <ref_mols>  (90) 
5CMS_0_E,mArh-6woj_B_0_B

>  <N_constrained_atoms>  (90) 
16.0

>  <ref_url>  (90) 
nan

>  <method>  (90) 
nan

>  <comRMSD>  (90) 
0.531892

>  <N_unconstrained_atoms>  (90) 
0.0

>  <∆∆G>  (90) 
-10.736298

>  <runtime>  (90) 
35.639778

>  <generation_date>  (90) 
nan

$$$$
5CMS_0_O_δ-mArh-4gvw_0_A_α
     RDKit          3D

 26 28  0  0  0  0  0  0  0  0999 V2000
   -3.7010   15.4680    1.5950 N   0  0  0  0  0  0  0  0  0  0  0  0
   -2.6060   14.6770    1.0620 C   0  0  1  0  0  0  0  0  0  0  0  0
   -2.5640   14.5500   -0.4610 C   0  0  2  0  0  0  0  0  0  0  0  0
   -1.4130   15.3000    1.5370 N   0  0  0  0  0  0  0  0  0  0  0  0
   -1.2830   15.2080   -0.9440 C   0  0  2  0  0  0  0  0  0  0  0  0
   -3.5820   15.1960   -1.3200 N   0  0  0  0  0  0  0  0  0  0  0  0
   -0.1850   14.6670    1.1120 C   0  0  0  0  0  0  0  0  0  0  0  0
   -1.4650   14.9360   -2.3610 N   0  0  0  0  0  0  0  0  0  0  0  0
   -2.8770   15.2320   -2.6150 C   0  0  0  0  0  0  0  0  0  0  0  0
   -0.0840   14.6720   -0.3290 N   0  0  0  0  0  0  0  0  0  0  0  0
   -0.5100   15.4300   -3.3790 C   0  0  0  0  0  0  0  0  0  0  0  0
   -0.4230   16.9620   -3.5430 C   0  0  0  0  0  0  0  0  0  0  0  0
    0.5030   17.4980   -4.6510 C   0  0  0  0  0  0  0  0  0  0  0  0
   -0.2060   17.7810   -5.9740 C   0  0  0  0  0  0  0  0  0  0  0  0
   -0.5230   19.2040   -6.2020 N   0  0  0  0  0  0  0  0  0  0  0  0
   -0.1490   19.8380   -7.7390 S   0  0  1  0  0  0  0  0  0  0  0  0
    0.8360   20.8900   -7.5580 O   0  0  0  0  0  0  0  0  0  0  0  0
    0.1070   18.7420   -8.6840 O   0  0  0  0  0  0  0  0  0  0  0  0
   -1.6910   20.6030   -8.1930 C   0  0  0  0  0  0  0  0  0  0  0  0
   -2.0380   21.9690   -7.6480 C   0  0  0  0  0  0  0  0  0  0  0  0
   -3.4840   22.2100   -7.5130 N   0  0  0  0  0  0  0  0  0  0  0  0
   -3.7770   23.1680   -6.4420 C   0  0  0  0  0  0  0  0  0  0  0  0
   -4.1390   22.6240   -8.7710 C   0  0  0  0  0  0  0  0  0  0  0  0
   -5.2290   23.5660   -6.3680 C   0  0  0  0  0  0  0  0  0  0  0  0
   -5.6400   22.8960   -8.5920 C   0  0  0  0  0  0  0  0  0  0  0  0
   -5.8740   23.8880   -7.5900 O   0  0  0  0  0  0  0  0  0  0  0  0
  2  1  1  6
  2  3  1  0
  2  4  1  0
  3  5  1  0
  3  6  1  6
  4  7  1  0
  5  8  1  0
  6  9  1  0
  8  9  1  0
  5 10  1  1
  7 10  1  0
  8 11  1  0
 11 12  1  0
 12 13  1  0
 13 14  1  0
 14 15  1  0
 15 16  2  0
 16 17  2  0
 16 18  1  6
 16 19  1  0
 19 20  1  0
 20 21  1  0
 21 22  1  0
 21 23  1  0
 22 24  1  0
 23 25  1  0
 24 26  1  0
 25 26  1  0
M  CHG  1  18  -1
M  END
>  <%Rank>  (91) 
6.870229

>  <N_hits>  (91) 
2

>  <submitter_name>  (91) 
nan

>  <original SMILES>  (91) 
nan

>  <∆G_unbound>  (91) 
1.566778

>  <∆G_bound>  (91) 
-16.075565

>  <regarded>  (91) 
5CMS_0_O_δ,mArh-4gvw_0_A_α

>  <ref_pdb>  (91) 
nan

>  <smiles>  (91) 
NC1NCNC2C1NCN2CCCCN=S(=O)([O-])CCN1CCOCC1

>  <submitter_email>  (91) 
nan

>  <disregarded>  (91) 


>  <LE>  (91) 
-0.678552

>  <submitter_institution>  (91) 
nan

>  <ref_mols>  (91) 
5CMS_0_O,mArh-4gvw_0_A

>  <N_constrained_atoms>  (91) 
22.0

>  <ref_url>  (91) 
nan

>  <method>  (91) 
nan

>  <comRMSD>  (91) 
0.565604

>  <N_unconstrained_atoms>  (91) 
4.0

>  <∆∆G>  (91) 
-17.642343

>  <runtime>  (91) 
36.405953

>  <generation_date>  (91) 
nan

$$$$
mArh-5cb5_F_1_F_β-mArh-x0805_0_A_β
     RDKit          3D

 19 19  0  0  0  0  0  0  0  0999 V2000
   -1.6160   20.3710   -8.2310 O   0  0  0  0  0  0  0  0  0  0  0  0
   -0.3030   19.5710   -7.8510 P   0  0  0  0  0  0  0  0  0  0  0  0
   -0.4540   18.9540   -6.4090 O   0  0  0  0  0  0  0  0  0  0  0  0
    0.1740   18.6320   -8.8870 O   0  0  0  0  0  0  0  0  0  0  0  0
    0.7060   20.7970   -7.7080 O   0  0  0  0  0  0  0  0  0  0  0  0
   -1.7250   18.1660   -5.8940 P   0  0  2  0  0  0  0  0  0  0  0  0
   -1.2540   16.9350   -4.9740 O   0  0  0  0  0  0  0  0  0  0  0  0
   -2.7400   17.8220   -6.9040 O   0  0  0  0  0  0  0  0  0  0  0  0
   -2.2330   19.2170   -4.8110 O   0  0  0  0  0  0  0  0  0  0  0  0
    0.0760   16.9370   -4.4860 C   0  0  0  0  0  0  0  0  0  0  0  0
    0.5090   15.6280   -3.7920 C   0  0  1  0  0  0  0  0  0  0  0  0
   -0.4010   14.3930   -3.8090 C   0  0  0  0  0  0  0  0  0  0  0  0
    1.9210   15.3160   -4.3040 C   0  0  0  0  0  0  0  0  0  0  0  0
    0.6120   13.3340   -3.4060 C   0  0  1  0  0  0  0  0  0  0  0  0
    2.3220   13.9940   -4.7580 O   0  0  0  0  0  0  0  0  0  0  0  0
    0.2070   12.2560   -2.4390 C   0  0  0  0  0  0  0  0  0  0  0  0
    1.3830   12.9570   -4.6230 C   0  0  0  0  0  0  0  0  0  0  0  0
   -0.0120   11.0430   -3.0070 O   0  0  0  0  0  0  0  0  0  0  0  0
    0.1110   12.4550   -1.2420 O   0  0  0  0  0  0  0  0  0  0  0  0
  1  2  1  0
  2  3  1  0
  2  4  2  0
  2  5  1  0
  3  6  1  0
  6  7  1  0
  6  8  2  0
  6  9  1  1
  7 10  1  0
 11 10  1  6
 11 12  1  0
 11 13  1  0
 12 14  1  0
 13 15  1  0
 14 16  1  6
 14 17  1  0
 15 17  1  0
 16 18  1  0
 16 19  2  0
M  END
>  <%Rank>  (92) 
6.946565

>  <N_hits>  (92) 
2

>  <submitter_name>  (92) 
nan

>  <original SMILES>  (92) 
nan

>  <∆G_unbound>  (92) 
1.707801

>  <∆G_bound>  (92) 
-11.769994

>  <regarded>  (92) 
mArh-5cb5_F_1_F_β,mArh-x0805_0_A_β

>  <ref_pdb>  (92) 
nan

>  <smiles>  (92) 
O=C(O)C1COCC(COP(=O)(O)OP(=O)(O)O)C1

>  <submitter_email>  (92) 
nan

>  <disregarded>  (92) 


>  <LE>  (92) 
-0.709358

>  <submitter_institution>  (92) 
nan

>  <ref_mols>  (92) 
mArh-5cb5_F_1_F,mArh-x0805_0_A

>  <N_constrained_atoms>  (92) 
18.0

>  <ref_url>  (92) 
nan

>  <method>  (92) 
nan

>  <comRMSD>  (92) 
0.572346

>  <N_unconstrained_atoms>  (92) 
1.0

>  <∆∆G>  (92) 
-13.477795

>  <runtime>  (92) 
36.237683

>  <generation_date>  (92) 
nan

$$$$
mArh-x0722_0_A_α-5CMS_0_P_γ
     RDKit          3D

 20 21  0  0  0  0  0  0  0  0999 V2000
   -4.7160   15.4520    1.8960 C   0  0  0  0  0  0  0  0  0  0  0  0
   -3.5200   15.0510    1.1540 C   0  0  0  0  0  0  0  0  0  0  0  0
   -2.3970   14.8130    1.8040 N   0  0  0  0  0  0  0  0  0  0  0  0
   -3.3930   14.8700   -0.2450 C   0  0  0  0  0  0  0  0  0  0  0  0
   -4.4960   15.0800   -1.2480 C   0  0  0  0  0  0  0  0  0  0  0  0
   -2.0570   14.4690   -0.4140 C   0  0  0  0  0  0  0  0  0  0  0  0
   -1.5310   14.4690    0.8610 N   0  0  0  0  0  0  0  0  0  0  0  0
   -0.1880   14.1460    1.2640 C   0  0  0  0  0  0  0  0  0  0  0  0
   -1.1850   14.0760   -1.5930 C   0  0  0  0  0  0  0  0  0  0  0  0
   -5.8620   14.6410   -0.7250 C   0  0  0  0  0  0  0  0  0  0  0  0
   -6.8870   15.3080   -0.8420 O   0  0  0  0  0  0  0  0  0  0  0  0
   -5.9000   13.4280   -0.0960 N   0  0  0  0  0  0  0  0  0  0  0  0
   -1.4710   14.6780   -2.9820 C   0  0  1  0  0  0  0  0  0  0  0  0
   -0.3950   15.6040   -3.2790 O   0  0  0  0  0  0  0  0  0  0  0  0
   -1.5090   13.6910   -4.1900 C   0  0  2  0  0  0  0  0  0  0  0  0
   -1.3050   12.3310   -3.7880 O   0  0  0  0  0  0  0  0  0  0  0  0
   -0.3040   15.6030   -4.7060 C   0  0  2  0  0  0  0  0  0  0  0  0
   -0.3210   14.1130   -5.0570 C   0  0  1  0  0  0  0  0  0  0  0  0
    0.8620   16.4540   -5.1620 C   0  0  0  0  0  0  0  0  0  0  0  0
    0.8460   13.3800   -4.6630 O   0  0  0  0  0  0  0  0  0  0  0  0
  1  2  1  0
  2  3  2  0
  2  4  1  0
  4  5  1  0
  4  6  2  0
  3  7  1  0
  6  7  1  0
  7  8  1  0
  6  9  1  0
  5 10  1  0
 10 11  2  0
 10 12  1  0
 13  9  1  1
 13 14  1  0
 13 15  1  0
 15 16  1  1
 14 17  1  0
 15 18  1  0
 17 18  1  0
 17 19  1  1
 18 20  1  1
M  END
>  <%Rank>  (93) 
7.022901

>  <N_hits>  (93) 
2

>  <submitter_name>  (93) 
nan

>  <original SMILES>  (93) 
nan

>  <∆G_unbound>  (93) 
0.815103

>  <∆G_bound>  (93) 
-7.038858

>  <regarded>  (93) 
mArh-x0722_0_A_α,5CMS_0_P_γ

>  <ref_pdb>  (93) 
nan

>  <smiles>  (93) 
Cc1nn(C)c(CC2OC(C)C(O)C2O)c1CC(N)=O

>  <submitter_email>  (93) 
nan

>  <disregarded>  (93) 


>  <LE>  (93) 
-0.392698

>  <submitter_institution>  (93) 
nan

>  <ref_mols>  (93) 
mArh-x0722_0_A,5CMS_0_P

>  <N_constrained_atoms>  (93) 
20.0

>  <ref_url>  (93) 
nan

>  <method>  (93) 
nan

>  <comRMSD>  (93) 
0.48166

>  <N_unconstrained_atoms>  (93) 
0.0

>  <∆∆G>  (93) 
-7.853961

>  <runtime>  (93) 
32.839655

>  <generation_date>  (93) 
nan

$$$$
mArh-5cms_R_17_R_β-mArh-x0849_0_A_α
     RDKit          3D

 22 23  0  0  0  0  0  0  0  0999 V2000
   -1.4100   20.6340   -8.5030 O   0  0  0  0  0  0  0  0  0  0  0  0
   -0.3670   19.7880   -7.6550 P   0  0  0  0  0  0  0  0  0  0  0  0
   -1.1250   19.4220   -6.2750 O   0  0  0  0  0  0  0  0  0  0  0  0
    0.9340   20.4780   -7.5130 O   0  0  0  0  0  0  0  0  0  0  0  0
   -0.3210   18.5000   -8.6020 O   0  0  0  0  0  0  0  0  0  0  0  0
   -1.6510   17.9330   -6.0910 P   0  0  0  0  0  0  0  0  0  0  0  0
   -0.2830   17.1280   -6.1630 O   0  0  0  0  0  0  0  0  0  0  0  0
   -2.6290   17.5400   -7.0970 O   0  0  0  0  0  0  0  0  0  0  0  0
   -2.1120   17.4760   -4.6320 O   0  0  0  0  0  0  0  0  0  0  0  0
   -2.5710   16.1000   -4.6270 C   0  0  0  0  0  0  0  0  0  0  0  0
   -2.3680   15.2410   -3.3630 C   0  0  0  0  0  0  0  0  0  0  0  0
   -3.4520   15.4470   -2.4520 O   0  0  0  0  0  0  0  0  0  0  0  0
   -3.4700   15.2900   -1.0710 C   0  0  0  0  0  0  0  0  0  0  0  0
   -2.2880   14.9160   -0.3460 C   0  0  0  0  0  0  0  0  0  0  0  0
   -4.6390   15.5000   -0.3580 C   0  0  0  0  0  0  0  0  0  0  0  0
   -2.4010   14.7940    1.0510 C   0  0  0  0  0  0  0  0  0  0  0  0
   -4.6120   15.3410    1.0020 C   0  0  0  0  0  0  0  0  0  0  0  0
   -1.0070   14.6640   -0.8970 C   0  0  0  0  0  0  0  0  0  0  0  0
   -3.5290   15.0010    1.6820 N   0  0  0  0  0  0  0  0  0  0  0  0
   -1.3970   14.4680    1.8270 N   0  0  0  0  0  0  0  0  0  0  0  0
    0.0550   14.3220   -0.0640 C   0  0  0  0  0  0  0  0  0  0  0  0
   -0.2100   14.2400    1.2870 C   0  0  0  0  0  0  0  0  0  0  0  0
  1  2  1  0
  2  3  1  0
  2  4  2  0
  2  5  1  0
  3  6  1  0
  6  7  1  0
  6  8  2  0
  6  9  1  0
  9 10  1  0
 10 11  1  0
 11 12  1  0
 12 13  1  0
 13 14  2  0
 13 15  1  0
 14 16  1  0
 15 17  2  0
 14 18  1  0
 16 19  2  0
 17 19  1  0
 16 20  1  0
 18 21  2  0
 20 22  2  0
 21 22  1  0
M  END
>  <%Rank>  (94) 
7.099237

>  <N_hits>  (94) 
2

>  <submitter_name>  (94) 
nan

>  <original SMILES>  (94) 
nan

>  <∆G_unbound>  (94) 
2.181182

>  <∆G_bound>  (94) 
-11.289904

>  <regarded>  (94) 
mArh-5cms_R_17_R_β,mArh-x0849_0_A_α

>  <ref_pdb>  (94) 
nan

>  <smiles>  (94) 
O=P(O)(O)OP(=O)(O)OCCOc1ccnc2ncccc12

>  <submitter_email>  (94) 
nan

>  <disregarded>  (94) 


>  <LE>  (94) 
-0.612322

>  <submitter_institution>  (94) 
nan

>  <ref_mols>  (94) 
mArh-5cms_R_17_R,mArh-x0849_0_A

>  <N_constrained_atoms>  (94) 
20.0

>  <ref_url>  (94) 
nan

>  <method>  (94) 
nan

>  <comRMSD>  (94) 
0.541813

>  <N_unconstrained_atoms>  (94) 
2.0

>  <∆∆G>  (94) 
-13.471087

>  <runtime>  (94) 
32.230774

>  <generation_date>  (94) 
nan

$$$$
mArh-x0727_0_A_α-5DUS_0_A_γ
     RDKit          3D

 20 21  0  0  0  0  0  0  0  0999 V2000
    0.0990   11.4300   -5.6240 N   0  0  0  0  0  0  0  0  0  0  0  0
    0.9490   12.2470   -4.7560 C   0  0  1  0  0  0  0  0  0  0  0  0
    0.9850   13.7020   -5.2240 C   0  0  0  0  0  0  0  0  0  0  0  0
    0.6720   11.0760   -6.8220 C   0  0  0  0  0  0  0  0  0  0  0  0
    1.6320   11.6700   -7.2350 O   0  0  0  0  0  0  0  0  0  0  0  0
    0.6560   11.9510   -3.2790 C   0  0  0  0  0  0  0  0  0  0  0  0
    0.0440    9.8950   -7.5460 C   0  0  0  0  0  0  0  0  0  0  0  0
   -0.0970   11.0860   -2.8510 O   0  0  0  0  0  0  0  0  0  0  0  0
    1.3460   12.7340   -2.4230 O   0  0  0  0  0  0  0  0  0  0  0  0
   -1.2830   10.2570   -8.2160 C   0  0  0  0  0  0  0  0  0  0  0  0
   -0.2640    8.7350   -6.5820 C   0  0  0  0  0  0  0  0  0  0  0  0
   -0.0890   14.7470   -4.8730 C   0  0  2  0  0  0  0  0  0  0  0  0
   -2.1580    9.0300   -8.0390 C   0  0  0  0  0  0  0  0  0  0  0  0
   -1.7610    8.4950   -6.6700 C   0  0  0  0  0  0  0  0  0  0  0  0
    0.6410   15.8410   -4.0870 C   0  0  1  0  0  0  0  0  0  0  0  0
   -1.2530   14.3590   -3.9680 C   0  0  1  0  0  0  0  0  0  0  0  0
   -1.6320   12.9970   -4.1530 O   0  0  0  0  0  0  0  0  0  0  0  0
    0.3940   17.2440   -4.6290 C   0  0  0  0  0  0  0  0  0  0  0  0
   -0.6960   14.6290   -2.5870 C   0  0  0  0  0  0  0  0  0  0  0  0
    0.2030   15.7460   -2.7240 O   0  0  0  0  0  0  0  0  0  0  0  0
  1  2  1  0
  2  3  1  1
  1  4  1  0
  4  5  2  0
  2  6  1  0
  4  7  1  0
  6  8  2  0
  6  9  1  0
  7 10  1  0
  7 11  1  0
 12  3  1  1
 10 13  1  0
 11 14  1  0
 13 14  1  0
 12 15  1  0
 12 16  1  0
 16 17  1  1
 15 18  1  6
 16 19  1  0
 15 20  1  0
 19 20  1  0
M  END
>  <%Rank>  (95) 
7.175573

>  <N_hits>  (95) 
2

>  <submitter_name>  (95) 
nan

>  <original SMILES>  (95) 
nan

>  <∆G_unbound>  (95) 
1.214242

>  <∆G_bound>  (95) 
-1.073151

>  <regarded>  (95) 
mArh-x0727_0_A_α,5DUS_0_A_γ

>  <ref_pdb>  (95) 
nan

>  <smiles>  (95) 
CC1OCC(O)C1C[C@H](NC(=O)C1CCCC1)C(=O)O

>  <submitter_email>  (95) 
nan

>  <disregarded>  (95) 


>  <LE>  (95) 
-0.11437

>  <submitter_institution>  (95) 
nan

>  <ref_mols>  (95) 
mArh-x0727_0_A,5DUS_0_A

>  <N_constrained_atoms>  (95) 
20.0

>  <ref_url>  (95) 
nan

>  <method>  (95) 
nan

>  <comRMSD>  (95) 
0.345328

>  <N_unconstrained_atoms>  (95) 
0.0

>  <∆∆G>  (95) 
-2.287392

>  <runtime>  (95) 
32.300417

>  <generation_date>  (95) 
nan

$$$$
6WOJ_0_A_α-mArh-6woj_D_0_D_β
     RDKit          3D

 17 17  0  0  0  0  0  0  0  0999 V2000
   -1.3710   21.8210   -7.9160 C   0  0  0  0  0  0  0  0  0  0  0  0
   -0.4870   20.2880   -7.6000 P   0  0  2  0  0  0  0  0  0  0  0  0
   -1.0710   19.7610   -6.2240 O   0  0  0  0  0  0  0  0  0  0  0  0
   -2.8860   21.9390   -8.1310 C   0  0  1  0  0  0  0  0  0  0  0  0
    0.9880   20.4880   -7.5380 O   0  0  0  0  0  0  0  0  0  0  0  0
   -0.8650   19.1020   -8.6270 O   0  0  0  0  0  0  0  0  0  0  0  0
   -3.6150   21.1010   -7.2120 O   0  0  0  0  0  0  0  0  0  0  0  0
   -3.4150   23.3790   -7.9290 C   0  0  1  0  0  0  0  0  0  0  0  0
   -4.3420   23.7960   -8.9410 O   0  0  0  0  0  0  0  0  0  0  0  0
   -1.4010   18.2680   -5.8320 P   0  0  0  0  0  0  0  0  0  0  0  0
   -4.3360   21.8990   -6.2550 C   0  0  1  0  0  0  0  0  0  0  0  0
   -4.0820   23.3840   -6.5510 C   0  0  2  0  0  0  0  0  0  0  0  0
   -5.7210   21.5800   -6.2590 O   0  0  0  0  0  0  0  0  0  0  0  0
   -5.3410   24.1000   -6.5810 O   0  0  0  0  0  0  0  0  0  0  0  0
   -0.1220   17.3960   -6.1840 O   0  0  0  0  0  0  0  0  0  0  0  0
   -1.8480   18.0540   -4.4630 O   0  0  0  0  0  0  0  0  0  0  0  0
   -2.4870   17.7760   -6.8840 O   0  0  0  0  0  0  0  0  0  0  0  0
  1  2  1  0
  2  3  1  0
  4  1  1  1
  2  5  2  0
  2  6  1  6
  4  7  1  0
  4  8  1  0
  8  9  1  6
  3 10  1  0
  7 11  1  0
  8 12  1  0
 11 12  1  0
 11 13  1  6
 12 14  1  6
 10 15  1  0
 10 16  2  0
 10 17  1  0
M  END
>  <%Rank>  (96) 
7.251908

>  <N_hits>  (96) 
2

>  <submitter_name>  (96) 
nan

>  <original SMILES>  (96) 
nan

>  <∆G_unbound>  (96) 
1.703844

>  <∆G_bound>  (96) 
-12.839421

>  <regarded>  (96) 
6WOJ_0_A_α,mArh-6woj_D_0_D_β

>  <ref_pdb>  (96) 
nan

>  <smiles>  (96) 
O=P(O)(O)OP(=O)(O)CC1OC(O)C(O)C1O

>  <submitter_email>  (96) 
nan

>  <disregarded>  (96) 


>  <LE>  (96) 
-0.855486

>  <submitter_institution>  (96) 
nan

>  <ref_mols>  (96) 
6WOJ_0_A,mArh-6woj_D_0_D

>  <N_constrained_atoms>  (96) 
17.0

>  <ref_url>  (96) 
nan

>  <method>  (96) 
nan

>  <comRMSD>  (96) 
0.658075

>  <N_unconstrained_atoms>  (96) 
0.0

>  <∆∆G>  (96) 
-14.543266

>  <runtime>  (96) 
35.796204

>  <generation_date>  (96) 
nan

$$$$
mArh-6mea_B_0_B_β-mArh-5cms_C_2_C_γ
     RDKit          3D

 16 16  0  0  0  0  0  0  0  0999 V2000
   -1.5440   20.4140   -8.0700 O   0  0  0  0  0  0  0  0  0  0  0  0
   -0.1330   19.8190   -7.6270 P   0  0  0  0  0  0  0  0  0  0  0  0
   -0.3810   19.1710   -6.2150 O   0  0  0  0  0  0  0  0  0  0  0  0
    0.9800   20.8060   -7.6450 O   0  0  0  0  0  0  0  0  0  0  0  0
    0.0390   18.5970   -8.6490 O   0  0  0  0  0  0  0  0  0  0  0  0
   -1.3470   17.9740   -5.8920 P   0  0  2  0  0  0  0  0  0  0  0  0
   -0.3660   16.7300   -5.5850 O   0  0  0  0  0  0  0  0  0  0  0  0
   -2.5100   17.7590   -6.7990 O   0  0  0  0  0  0  0  0  0  0  0  0
   -1.7750   18.4440   -4.4380 O   0  0  0  0  0  0  0  0  0  0  0  0
   -0.8110   15.6680   -4.7490 C   0  0  2  0  0  0  0  0  0  0  0  0
   -0.2150   15.6700   -3.4450 O   0  0  0  0  0  0  0  0  0  0  0  0
   -0.5640   14.2250   -5.2330 C   0  0  1  0  0  0  0  0  0  0  0  0
    0.8080   13.8080   -5.3720 O   0  0  0  0  0  0  0  0  0  0  0  0
   -0.5430   14.3860   -2.8810 C   0  0  0  0  0  0  0  0  0  0  0  0
   -1.0830   13.5140   -4.0170 C   0  0  2  0  0  0  0  0  0  0  0  0
   -0.5960   12.1860   -3.9810 O   0  0  0  0  0  0  0  0  0  0  0  0
  1  2  1  0
  2  3  1  0
  2  4  2  0
  2  5  1  0
  3  6  1  0
  6  7  1  0
  6  8  2  0
  6  9  1  1
 10  7  1  6
 10 11  1  0
 10 12  1  0
 12 13  1  1
 11 14  1  0
 12 15  1  0
 14 15  1  0
 15 16  1  1
M  END
>  <%Rank>  (97) 
7.328244

>  <N_hits>  (97) 
2

>  <submitter_name>  (97) 
nan

>  <original SMILES>  (97) 
nan

>  <∆G_unbound>  (97) 
1.157846

>  <∆G_bound>  (97) 
-8.809076

>  <regarded>  (97) 
mArh-6mea_B_0_B_β,mArh-5cms_C_2_C_γ

>  <ref_pdb>  (97) 
nan

>  <smiles>  (97) 
O=P(O)(O)OP(=O)(O)OC1OCC(O)C1O

>  <submitter_email>  (97) 
nan

>  <disregarded>  (97) 


>  <LE>  (97) 
-0.622933

>  <submitter_institution>  (97) 
nan

>  <ref_mols>  (97) 
mArh-6mea_B_0_B,mArh-5cms_C_2_C

>  <N_constrained_atoms>  (97) 
16.0

>  <ref_url>  (97) 
nan

>  <method>  (97) 
nan

>  <comRMSD>  (97) 
0.520043

>  <N_unconstrained_atoms>  (97) 
0.0

>  <∆∆G>  (97) 
-9.966921

>  <runtime>  (97) 
31.911835

>  <generation_date>  (97) 
nan

$$$$
mArh-3ew5_A_0_A_α-5CMS_0_C_γ
     RDKit          3D

 20 20  0  0  0  0  0  0  0  0999 V2000
   -0.2770   20.1240   -7.7980 P   0  0  2  0  0  0  0  0  0  0  0  0
   -1.8490   20.4240   -7.9020 O   0  0  0  0  0  0  0  0  0  0  0  0
   -2.2710   21.7460   -8.2010 C   0  0  0  0  0  0  0  0  0  0  0  0
    0.6530   21.2840   -7.9170 O   0  0  0  0  0  0  0  0  0  0  0  0
   -0.0250   18.9100   -8.8190 O   0  0  0  0  0  0  0  0  0  0  0  0
   -0.1940   19.3620   -6.4010 O   0  0  0  0  0  0  0  0  0  0  0  0
    0.9400   18.5980   -6.0710 C   0  0  0  0  0  0  0  0  0  0  0  0
   -3.4130   22.1990   -7.2790 C   0  0  2  0  0  0  0  0  0  0  0  0
    0.6080   17.8320   -4.8110 C   0  0  0  0  0  0  0  0  0  0  0  0
   -4.7730   22.2190   -7.9860 C   0  0  0  0  0  0  0  0  0  0  0  0
   -3.1660   23.5270   -6.8090 O   0  0  0  0  0  0  0  0  0  0  0  0
    0.0500   16.4460   -5.0830 C   0  0  0  0  0  0  0  0  0  0  0  0
   -5.8020   21.9380   -7.0290 O   0  0  0  0  0  0  0  0  0  0  0  0
    0.6210   15.3330   -4.2330 C   0  0  1  0  0  0  0  0  0  0  0  0
   -0.1140   15.3650   -2.9830 O   0  0  0  0  0  0  0  0  0  0  0  0
    0.5010   13.8860   -4.7200 C   0  0  2  0  0  0  0  0  0  0  0  0
    0.4950   13.7170   -6.1280 O   0  0  0  0  0  0  0  0  0  0  0  0
   -0.8570   14.1430   -2.8410 C   0  0  0  0  0  0  0  0  0  0  0  0
   -0.8460   13.4740   -4.2060 C   0  0  2  0  0  0  0  0  0  0  0  0
   -0.8240   12.0590   -4.1170 O   0  0  0  0  0  0  0  0  0  0  0  0
  1  2  1  0
  2  3  1  0
  1  4  2  0
  1  5  1  6
  1  6  1  0
  6  7  1  0
  3  8  1  0
  7  9  1  0
  8 10  1  0
  8 11  1  6
  9 12  1  0
 10 13  1  0
 14 12  1  6
 14 15  1  0
 14 16  1  0
 16 17  1  6
 15 18  1  0
 16 19  1  0
 18 19  1  0
 19 20  1  1
M  END
>  <%Rank>  (98) 
7.40458

>  <N_hits>  (98) 
2

>  <submitter_name>  (98) 
nan

>  <original SMILES>  (98) 
nan

>  <∆G_unbound>  (98) 
2.240617

>  <∆G_bound>  (98) 
-11.908114

>  <regarded>  (98) 
mArh-3ew5_A_0_A_α,5CMS_0_C_γ

>  <ref_pdb>  (98) 
nan

>  <smiles>  (98) 
O=P(O)(OCCCC1OCC(O)C1O)OC[C@@H](O)CO

>  <submitter_email>  (98) 
nan

>  <disregarded>  (98) 


>  <LE>  (98) 
-0.707437

>  <submitter_institution>  (98) 
nan

>  <ref_mols>  (98) 
mArh-3ew5_A_0_A,5CMS_0_C

>  <N_constrained_atoms>  (98) 
18.0

>  <ref_url>  (98) 
nan

>  <method>  (98) 
nan

>  <comRMSD>  (98) 
0.550619

>  <N_unconstrained_atoms>  (98) 
2.0

>  <∆∆G>  (98) 
-14.148732

>  <runtime>  (98) 
31.565654

>  <generation_date>  (98) 
nan

$$$$
5CB5_0_B_α-5DUS_0_A_γ
     RDKit          3D

 22 23  0  0  0  0  0  0  0  0999 V2000
   -2.0510   21.6400   -8.6720 C   0  0  0  0  0  0  0  0  0  0  0  0
   -3.3370   22.1040   -8.0320 C   0  0  2  0  0  0  0  0  0  0  0  0
   -4.3710   21.1770   -8.3500 O   0  0  0  0  0  0  0  0  0  0  0  0
   -3.9440   23.4270   -8.4580 C   0  0  1  0  0  0  0  0  0  0  0  0
   -4.1150   23.5230   -9.8810 O   0  0  0  0  0  0  0  0  0  0  0  0
   -5.4820   21.7350   -7.6720 C   0  0  2  0  0  0  0  0  0  0  0  0
   -5.3330   23.2800   -7.8340 C   0  0  1  0  0  0  0  0  0  0  0  0
   -5.4380   21.3890   -6.2820 O   0  0  0  0  0  0  0  0  0  0  0  0
   -5.4810   24.0260   -6.6150 O   0  0  0  0  0  0  0  0  0  0  0  0
   -4.1090   21.2360   -5.7540 C   0  0  0  0  0  0  0  0  0  0  0  0
   -3.1940   20.1940   -6.4550 C   0  0  0  0  0  0  0  0  0  0  0  0
   -2.0090   19.8090   -5.5600 C   0  0  0  0  0  0  0  0  0  0  0  0
   -1.5970   18.3230   -5.5470 C   0  0  0  0  0  0  0  0  0  0  0  0
   -0.1960   18.1010   -4.9200 C   0  0  0  0  0  0  0  0  0  0  0  0
    0.5380   16.8540   -5.4020 C   0  0  0  0  0  0  0  0  0  0  0  0
    0.7770   15.6670   -4.4380 C   0  0  1  0  0  0  0  0  0  0  0  0
    0.0920   15.8330   -3.1620 O   0  0  0  0  0  0  0  0  0  0  0  0
    0.2510   14.3410   -5.0040 C   0  0  1  0  0  0  0  0  0  0  0  0
    0.9960   13.1730   -4.7120 O   0  0  0  0  0  0  0  0  0  0  0  0
   -0.7960   14.7110   -2.9870 C   0  0  0  0  0  0  0  0  0  0  0  0
   -1.1350   14.2910   -4.3970 C   0  0  2  0  0  0  0  0  0  0  0  0
   -1.7040   13.0040   -4.5330 O   0  0  0  0  0  0  0  0  0  0  0  0
  2  1  1  6
  2  3  1  0
  2  4  1  0
  4  5  1  6
  3  6  1  0
  4  7  1  0
  6  7  1  0
  6  8  1  1
  7  9  1  1
  8 10  1  0
 10 11  1  0
 11 12  1  0
 12 13  1  0
 13 14  1  0
 14 15  1  0
 16 15  1  6
 16 17  1  0
 16 18  1  0
 18 19  1  1
 17 20  1  0
 18 21  1  0
 20 21  1  0
 21 22  1  1
M  END
>  <%Rank>  (99) 
7.480916

>  <N_hits>  (99) 
2

>  <submitter_name>  (99) 
nan

>  <original SMILES>  (99) 
nan

>  <∆G_unbound>  (99) 
0.187336

>  <∆G_bound>  (99) 
-11.098003

>  <regarded>  (99) 
5CB5_0_B_α,5DUS_0_A_γ

>  <ref_pdb>  (99) 
nan

>  <smiles>  (99) 
CC1OC(OCCCCCCC2OCC(O)C2O)C(O)C1O

>  <submitter_email>  (99) 
nan

>  <disregarded>  (99) 


>  <LE>  (99) 
-0.51297

>  <submitter_institution>  (99) 
nan

>  <ref_mols>  (99) 
5CB5_0_B,5DUS_0_A

>  <N_constrained_atoms>  (99) 
17.0

>  <ref_url>  (99) 
nan

>  <method>  (99) 
nan

>  <comRMSD>  (99) 
0.340949

>  <N_unconstrained_atoms>  (99) 
5.0

>  <∆∆G>  (99) 
-11.285338

>  <runtime>  (99) 
42.954868

>  <generation_date>  (99) 
nan

$$$$
5CB5_0_J_δ-mArh-5cms_C_2_C_β
     RDKit          3D

 21 22  0  0  0  0  0  0  0  0999 V2000
   -4.1960   15.5030    1.8340 N   0  0  0  0  0  0  0  0  0  0  0  0
   -2.9680   15.5130    1.0420 C   0  0  2  0  0  0  0  0  0  0  0  0
   -3.0350   14.8600   -0.3120 C   0  0  2  0  0  0  0  0  0  0  0  0
   -1.8570   14.9360    1.7350 N   0  0  0  0  0  0  0  0  0  0  0  0
   -1.7350   15.2570   -0.9830 C   0  0  2  0  0  0  0  0  0  0  0  0
   -4.0540   15.2750   -1.2740 N   0  0  0  0  0  0  0  0  0  0  0  0
   -0.5820   15.0660    1.0380 C   0  0  0  0  0  0  0  0  0  0  0  0
   -1.9780   14.8230   -2.3350 N   0  0  0  0  0  0  0  0  0  0  0  0
   -3.4290   14.8950   -2.5440 C   0  0  0  0  0  0  0  0  0  0  0  0
   -0.6530   14.5670   -0.3260 N   0  0  0  0  0  0  0  0  0  0  0  0
   -1.2020   15.4810   -3.3760 C   0  0  0  0  0  0  0  0  0  0  0  0
   -1.9260   15.9480   -4.6360 C   0  0  0  0  0  0  0  0  0  0  0  0
   -1.0730   16.7290   -5.4340 O   0  0  0  0  0  0  0  0  0  0  0  0
   -1.6770   18.0660   -6.0520 P   0  0  1  0  0  0  0  0  0  0  0  0
   -0.4080   18.8900   -6.4740 O   0  0  0  0  0  0  0  0  0  0  0  0
   -2.7320   17.8120   -7.0440 O   0  0  0  0  0  0  0  0  0  0  0  0
   -2.1880   18.8930   -4.8000 O   0  0  0  0  0  0  0  0  0  0  0  0
   -0.2250   19.7120   -7.7910 P   0  0  0  0  0  0  0  0  0  0  0  0
   -1.6610   20.2990   -8.1650 O   0  0  0  0  0  0  0  0  0  0  0  0
    0.7710   20.8070   -7.7690 O   0  0  0  0  0  0  0  0  0  0  0  0
   -0.0180   18.6110   -8.9090 O   0  0  0  0  0  0  0  0  0  0  0  0
  2  1  1  1
  2  3  1  0
  2  4  1  0
  3  5  1  0
  3  6  1  6
  4  7  1  0
  5  8  1  0
  6  9  1  0
  8  9  1  0
  5 10  1  1
  7 10  1  0
  8 11  1  0
 11 12  1  0
 12 13  1  0
 13 14  1  0
 14 15  1  0
 14 16  2  0
 14 17  1  1
 15 18  1  0
 18 19  1  0
 18 20  2  0
 18 21  1  0
M  END
>  <%Rank>  (100) 
7.557252

>  <N_hits>  (100) 
2

>  <submitter_name>  (100) 
nan

>  <original SMILES>  (100) 
nan

>  <∆G_unbound>  (100) 
5.739235

>  <∆G_bound>  (100) 
-9.015492

>  <regarded>  (100) 
5CB5_0_J_δ,mArh-5cms_C_2_C_β

>  <ref_pdb>  (100) 
nan

>  <smiles>  (100) 
NC1NCNC2C1NCN2CCOP(=O)(O)OP(=O)(O)O

>  <submitter_email>  (100) 
nan

>  <disregarded>  (100) 


>  <LE>  (100) 
-0.702606

>  <submitter_institution>  (100) 
nan

>  <ref_mols>  (100) 
5CB5_0_J,mArh-5cms_C_2_C

>  <N_constrained_atoms>  (100) 
19.0

>  <ref_url>  (100) 
nan

>  <method>  (100) 
nan

>  <comRMSD>  (100) 
0.573168

>  <N_unconstrained_atoms>  (100) 
2.0

>  <∆∆G>  (100) 
-14.754727

>  <runtime>  (100) 
32.926135

>  <generation_date>  (100) 
nan

$$$$
3VFQ_0_A_γ-mArh-EU0342_0_A_α
     RDKit          3D

 18 19  0  0  0  0  0  0  0  0999 V2000
   -4.6830   11.2890   -2.4470 O   0  0  0  0  0  0  0  0  0  0  0  0
   -4.6310   12.7040   -2.4250 C   0  0  1  0  0  0  0  0  0  0  0  0
   -4.1960   13.1840   -1.0620 C   0  0  0  0  0  0  0  0  0  0  0  0
   -3.5850   13.2960   -3.3820 C   0  0  2  0  0  0  0  0  0  0  0  0
   -2.6160   12.2900   -3.6710 O   0  0  0  0  0  0  0  0  0  0  0  0
   -3.8350   14.6470   -1.3210 C   0  0  2  0  0  0  0  0  0  0  0  0
   -2.9260   14.4910   -2.6250 C   0  0  2  0  0  0  0  0  0  0  0  0
   -2.8870   15.6860   -3.5910 C   0  0  0  0  0  0  0  0  0  0  0  0
   -3.2190   15.4030   -0.0650 C   0  0  2  0  0  0  0  0  0  0  0  0
   -5.1320   15.3940   -1.6040 C   0  0  0  0  0  0  0  0  0  0  0  0
   -1.8640   15.0450    0.5220 C   0  0  0  0  0  0  0  0  0  0  0  0
   -4.2120   15.4190    1.1080 C   0  0  0  0  0  0  0  0  0  0  0  0
   -6.1120   15.1950   -0.4860 C   0  0  0  0  0  0  0  0  0  0  0  0
   -0.8160   15.1920   -0.3440 N   0  0  0  0  0  0  0  0  0  0  0  0
   -7.3210   15.2530   -0.6420 O   0  0  0  0  0  0  0  0  0  0  0  0
   -1.7310   14.6780    1.6990 O   0  0  0  0  0  0  0  0  0  0  0  0
   -5.5360   14.9520    0.7390 N   0  0  0  0  0  0  0  0  0  0  0  0
    0.4810   14.9470    0.1650 C   0  0  0  0  0  0  0  0  0  0  0  0
  2  1  1  1
  2  3  1  0
  2  4  1  0
  4  5  1  1
  6  3  1  1
  4  7  1  0
  6  7  1  0
  7  8  1  6
  6  9  1  0
  6 10  1  0
  9 11  1  1
  9 12  1  0
 10 13  1  0
 11 14  1  0
 13 15  2  0
 11 16  2  0
 12 17  1  0
 13 17  1  0
 14 18  1  0
M  END
>  <%Rank>  (101) 
7.633588

>  <N_hits>  (101) 
2

>  <submitter_name>  (101) 
nan

>  <original SMILES>  (101) 
nan

>  <∆G_unbound>  (101) 
1.732207

>  <∆G_bound>  (101) 
-4.832221

>  <regarded>  (101) 
3VFQ_0_A_γ,mArh-EU0342_0_A_α

>  <ref_pdb>  (101) 
nan

>  <smiles>  (101) 
CNC(=O)C1CNC(=O)CC12CC(O)C(O)C2C

>  <submitter_email>  (101) 
nan

>  <disregarded>  (101) 


>  <LE>  (101) 
-0.36469

>  <submitter_institution>  (101) 
nan

>  <ref_mols>  (101) 
3VFQ_0_A,mArh-EU0342_0_A

>  <N_constrained_atoms>  (101) 
18.0

>  <ref_url>  (101) 
nan

>  <method>  (101) 
nan

>  <comRMSD>  (101) 
0.441033

>  <N_unconstrained_atoms>  (101) 
0.0

>  <∆∆G>  (101) 
-6.564428

>  <runtime>  (101) 
34.731629

>  <generation_date>  (101) 
nan

$$$$
mArh-5cb5_L_0_L_β-mArh-6woj_D_0_D_γ
     RDKit          3D

 18 18  0  0  0  0  0  0  0  0999 V2000
   -1.3930   20.6590   -8.8810 O   0  0  0  0  0  0  0  0  0  0  0  0
   -0.3030   20.0280   -7.9250 P   0  0  0  0  0  0  0  0  0  0  0  0
   -1.0700   19.6990   -6.5970 O   0  0  0  0  0  0  0  0  0  0  0  0
    0.8540   20.9580   -7.7820 O   0  0  0  0  0  0  0  0  0  0  0  0
    0.0400   18.6670   -8.7020 O   0  0  0  0  0  0  0  0  0  0  0  0
   -1.6440   18.2970   -6.1990 P   0  0  2  0  0  0  0  0  0  0  0  0
   -0.3780   17.3540   -6.2620 O   0  0  0  0  0  0  0  0  0  0  0  0
   -2.8160   17.8010   -6.9360 O   0  0  0  0  0  0  0  0  0  0  0  0
   -1.8250   18.4370   -4.6220 O   0  0  0  0  0  0  0  0  0  0  0  0
    0.7310   17.7530   -5.4990 C   0  0  0  0  0  0  0  0  0  0  0  0
    1.2250   16.5610   -4.7220 C   0  0  0  0  0  0  0  0  0  0  0  0
    0.1640   15.5740   -4.3400 C   0  0  2  0  0  0  0  0  0  0  0  0
    0.2090   15.2540   -2.9360 O   0  0  0  0  0  0  0  0  0  0  0  0
    0.2650   14.2230   -5.0400 C   0  0  1  0  0  0  0  0  0  0  0  0
    1.5060   13.5440   -4.8250 O   0  0  0  0  0  0  0  0  0  0  0  0
   -0.4940   13.9940   -2.8410 C   0  0  0  0  0  0  0  0  0  0  0  0
   -0.8450   13.5610   -4.2690 C   0  0  2  0  0  0  0  0  0  0  0  0
   -0.7840   12.1470   -4.4110 O   0  0  0  0  0  0  0  0  0  0  0  0
  1  2  1  0
  2  3  1  0
  2  4  2  0
  2  5  1  0
  3  6  1  0
  6  7  1  0
  6  8  2  0
  6  9  1  1
  7 10  1  0
 10 11  1  0
 12 11  1  6
 12 13  1  0
 12 14  1  0
 14 15  1  1
 13 16  1  0
 14 17  1  0
 16 17  1  0
 17 18  1  1
M  END
>  <%Rank>  (102) 
7.709924

>  <N_hits>  (102) 
2

>  <submitter_name>  (102) 
nan

>  <original SMILES>  (102) 
nan

>  <∆G_unbound>  (102) 
2.208268

>  <∆G_bound>  (102) 
-9.982117

>  <regarded>  (102) 
mArh-5cb5_L_0_L_β,mArh-6woj_D_0_D_γ

>  <ref_pdb>  (102) 
nan

>  <smiles>  (102) 
O=P(O)(O)OP(=O)(O)OCCC1OCC(O)C1O

>  <submitter_email>  (102) 
nan

>  <disregarded>  (102) 


>  <LE>  (102) 
-0.677244

>  <submitter_institution>  (102) 
nan

>  <ref_mols>  (102) 
mArh-5cb5_L_0_L,mArh-6woj_D_0_D

>  <N_constrained_atoms>  (102) 
17.0

>  <ref_url>  (102) 
nan

>  <method>  (102) 
nan

>  <comRMSD>  (102) 
0.550273

>  <N_unconstrained_atoms>  (102) 
1.0

>  <∆∆G>  (102) 
-12.190385

>  <runtime>  (102) 
30.202025

>  <generation_date>  (102) 
nan

$$$$
5CMS_0_Q_α-mArh-x0228_0_B_α
     RDKit          3D

 20 21  0  0  0  0  0  0  0  0999 V2000
   -1.1320   22.1280   -7.7740 C   0  0  0  0  0  0  0  0  0  0  0  0
   -0.9970   22.1160   -9.2900 C   0  0  1  0  0  0  0  0  0  0  0  0
   -2.1950   21.5440   -9.8540 O   0  0  0  0  0  0  0  0  0  0  0  0
   -0.7780   23.5040   -9.9050 C   0  0  1  0  0  0  0  0  0  0  0  0
    0.3270   23.4710  -10.8190 O   0  0  0  0  0  0  0  0  0  0  0  0
   -2.6260   22.3660  -10.9480 C   0  0  2  0  0  0  0  0  0  0  0  0
   -2.0620   23.7620  -10.6770 C   0  0  2  0  0  0  0  0  0  0  0  0
   -4.0510   22.4950  -10.9320 O   0  0  0  0  0  0  0  0  0  0  0  0
   -1.7960   24.5490  -11.8610 O   0  0  0  0  0  0  0  0  0  0  0  0
   -4.7050   22.4610  -12.2030 C   0  0  0  0  0  0  0  0  0  0  0  0
   -5.3160   23.8210  -12.5490 C   0  0  0  0  0  0  0  0  0  0  0  0
   -6.7470   24.0180  -12.0340 C   0  0  0  0  0  0  0  0  0  0  0  0
   -7.6600   24.2740  -13.1590 N   0  0  0  0  0  0  0  0  0  0  0  0
   -7.3780   25.3610  -13.7790 C   0  0  0  0  0  0  0  0  0  0  0  0
   -8.0580   25.8260  -14.8740 N   0  0  0  0  0  0  0  0  0  0  0  0
   -9.3820   25.4870  -15.0320 N   0  0  0  0  0  0  0  0  0  0  0  0
   -9.8750   24.4260  -15.7440 C   0  0  0  0  0  0  0  0  0  0  0  0
  -10.4850   26.1180  -14.5330 C   0  0  0  0  0  0  0  0  0  0  0  0
  -11.1890   24.4170  -15.6830 N   0  0  0  0  0  0  0  0  0  0  0  0
  -11.5740   25.4890  -14.9150 N   0  0  0  0  0  0  0  0  0  0  0  0
  2  1  1  1
  2  3  1  0
  2  4  1  0
  4  5  1  6
  3  6  1  0
  4  7  1  0
  6  7  1  0
  6  8  1  1
  7  9  1  6
  8 10  1  0
 10 11  1  0
 11 12  1  0
 12 13  1  0
 13 14  2  3
 14 15  1  0
 15 16  1  0
 16 17  1  0
 16 18  1  0
 17 19  2  0
 18 20  2  0
 19 20  1  0
M  END
>  <%Rank>  (103) 
7.78626

>  <N_hits>  (103) 
2

>  <submitter_name>  (103) 
nan

>  <original SMILES>  (103) 
nan

>  <∆G_unbound>  (103) 
1.283483

>  <∆G_bound>  (103) 
-3.461423

>  <regarded>  (103) 
5CMS_0_Q_α,mArh-x0228_0_B_α

>  <ref_pdb>  (103) 
nan

>  <smiles>  (103) 
CC1OC(OCCCN=CNn2cnnc2)C(O)C1O

>  <submitter_email>  (103) 
nan

>  <disregarded>  (103) 


>  <LE>  (103) 
-0.237245

>  <submitter_institution>  (103) 
nan

>  <ref_mols>  (103) 
5CMS_0_Q,mArh-x0228_0_B

>  <N_constrained_atoms>  (103) 
17.0

>  <ref_url>  (103) 
nan

>  <method>  (103) 
nan

>  <comRMSD>  (103) 
0.27565

>  <N_unconstrained_atoms>  (103) 
3.0

>  <∆∆G>  (103) 
-4.744906

>  <runtime>  (103) 
37.741628

>  <generation_date>  (103) 
nan

$$$$
mArh-5cms_O_14_O_γ-mArh-x0253_0_A_α
     RDKit          3D

 21 22  0  0  0  0  0  0  0  0999 V2000
   -1.7920   12.9450   -4.2650 O   0  0  0  0  0  0  0  0  0  0  0  0
   -1.1220   14.2060   -4.3730 C   0  0  1  0  0  0  0  0  0  0  0  0
   -0.7820   14.7110   -2.9780 C   0  0  0  0  0  0  0  0  0  0  0  0
    0.2750   14.1170   -4.9430 C   0  0  2  0  0  0  0  0  0  0  0  0
    0.8830   12.8460   -4.5640 N   0  0  0  0  0  0  0  0  0  0  0  0
    0.2930   15.6610   -3.1360 O   0  0  0  0  0  0  0  0  0  0  0  0
    0.8980   15.4280   -4.4240 C   0  0  2  0  0  0  0  0  0  0  0  0
    0.6160   16.6450   -5.2960 C   0  0  0  0  0  0  0  0  0  0  0  0
    0.4090   11.8410   -5.4450 N   0  0  0  0  0  0  0  0  0  0  0  0
    0.9430   12.4240   -3.2440 C   0  0  0  0  0  0  0  0  0  0  0  0
    1.1450   11.6150   -6.5790 C   0  0  0  0  0  0  0  0  0  0  0  0
    1.4740   12.9750   -2.2950 O   0  0  0  0  0  0  0  0  0  0  0  0
    0.3160   11.2370   -3.0510 O   0  0  0  0  0  0  0  0  0  0  0  0
    2.2470   12.0910   -6.7110 O   0  0  0  0  0  0  0  0  0  0  0  0
    0.5010   10.7120   -7.5910 C   0  0  0  0  0  0  0  0  0  0  0  0
   -0.4790    9.7990   -7.1900 C   0  0  0  0  0  0  0  0  0  0  0  0
    0.8680   10.7650   -8.9450 C   0  0  0  0  0  0  0  0  0  0  0  0
   -1.0900    8.9490   -8.1240 C   0  0  0  0  0  0  0  0  0  0  0  0
    0.2620    9.9200   -9.8750 C   0  0  0  0  0  0  0  0  0  0  0  0
   -2.1400    7.9750   -7.6820 C   0  0  0  0  0  0  0  0  0  0  0  0
   -0.7110    9.0200   -9.4660 C   0  0  0  0  0  0  0  0  0  0  0  0
  2  1  1  1
  2  3  1  0
  2  4  1  0
  4  5  1  1
  3  6  1  0
  4  7  1  0
  6  7  1  0
  7  8  1  6
  5  9  1  0
  5 10  1  0
  9 11  1  0
 10 12  2  0
 10 13  1  0
 11 14  2  0
 11 15  1  0
 15 16  2  0
 15 17  1  0
 16 18  1  0
 17 19  2  0
 18 20  1  0
 18 21  2  0
 19 21  1  0
M  END
>  <%Rank>  (104) 
7.862595

>  <N_hits>  (104) 
2

>  <submitter_name>  (104) 
nan

>  <original SMILES>  (104) 
nan

>  <∆G_unbound>  (104) 
2.092979

>  <∆G_bound>  (104) 
-1.61285

>  <regarded>  (104) 
mArh-5cms_O_14_O_γ,mArh-x0253_0_A_α

>  <ref_pdb>  (104) 
nan

>  <smiles>  (104) 
Cc1cccc(C(=O)NN(C(=O)O)C2C(O)COC2C)c1

>  <submitter_email>  (104) 
nan

>  <disregarded>  (104) 


>  <LE>  (104) 
-0.176468

>  <submitter_institution>  (104) 
nan

>  <ref_mols>  (104) 
mArh-5cms_O_14_O,mArh-x0253_0_A

>  <N_constrained_atoms>  (104) 
21.0

>  <ref_url>  (104) 
nan

>  <method>  (104) 
nan

>  <comRMSD>  (104) 
0.412744

>  <N_unconstrained_atoms>  (104) 
0.0

>  <∆∆G>  (104) 
-3.705829

>  <runtime>  (104) 
32.518126

>  <generation_date>  (104) 
nan

$$$$
mArh-5cms_O_14_O_γ-mArh-3q6z_0_A_β
     RDKit          3D

 16 16  0  0  0  0  0  0  0  0999 V2000
   -1.4010   12.5400   -4.1430 O   0  0  0  0  0  0  0  0  0  0  0  0
   -0.2240   13.3050   -3.9750 C   0  0  2  0  0  0  0  0  0  0  0  0
   -0.2930   14.2910   -2.7960 C   0  0  0  0  0  0  0  0  0  0  0  0
    0.0780   14.1920   -5.1780 C   0  0  2  0  0  0  0  0  0  0  0  0
    1.4960   14.0910   -5.3620 O   0  0  0  0  0  0  0  0  0  0  0  0
    0.0550   15.5880   -3.3040 O   0  0  0  0  0  0  0  0  0  0  0  0
   -0.4020   15.5570   -4.6620 C   0  0  1  0  0  0  0  0  0  0  0  0
    0.0720   16.8270   -5.3450 C   0  0  0  0  0  0  0  0  0  0  0  0
   -1.2340   18.0270   -5.7180 P   0  0  2  0  0  0  0  0  0  0  0  0
   -0.5410   19.2750   -6.3760 O   0  0  0  0  0  0  0  0  0  0  0  0
   -1.9580   18.4300   -4.5020 O   0  0  0  0  0  0  0  0  0  0  0  0
   -2.2900   17.4260   -6.7790 O   0  0  0  0  0  0  0  0  0  0  0  0
   -0.2780   19.7010   -7.8380 P   0  0  0  0  0  0  0  0  0  0  0  0
   -1.6020   20.4990   -8.2030 O   0  0  0  0  0  0  0  0  0  0  0  0
    0.0960   18.6530   -8.8080 O   0  0  0  0  0  0  0  0  0  0  0  0
    0.7720   20.8940   -7.7140 O   0  0  0  0  0  0  0  0  0  0  0  0
  2  1  1  6
  2  3  1  0
  2  4  1  0
  4  5  1  1
  3  6  1  0
  4  7  1  0
  6  7  1  0
  7  8  1  6
  8  9  1  0
  9 10  1  0
  9 11  2  0
  9 12  1  6
 10 13  1  0
 13 14  1  0
 13 15  2  0
 13 16  1  0
M  END
>  <%Rank>  (105) 
7.938931

>  <N_hits>  (105) 
2

>  <submitter_name>  (105) 
nan

>  <original SMILES>  (105) 
nan

>  <∆G_unbound>  (105) 
1.057935

>  <∆G_bound>  (105) 
-9.912959

>  <regarded>  (105) 
mArh-5cms_O_14_O_γ,mArh-3q6z_0_A_β

>  <ref_pdb>  (105) 
nan

>  <smiles>  (105) 
O=P(O)(O)OP(=O)(O)CC1OCC(O)C1O

>  <submitter_email>  (105) 
nan

>  <disregarded>  (105) 


>  <LE>  (105) 
-0.685681

>  <submitter_institution>  (105) 
nan

>  <ref_mols>  (105) 
mArh-5cms_O_14_O,mArh-3q6z_0_A

>  <N_constrained_atoms>  (105) 
16.0

>  <ref_url>  (105) 
nan

>  <method>  (105) 
nan

>  <comRMSD>  (105) 
0.570925

>  <N_unconstrained_atoms>  (105) 
0.0

>  <∆∆G>  (105) 
-10.970894

>  <runtime>  (105) 
27.445344

>  <generation_date>  (105) 
nan

$$$$
mArh-x0895_0_A_α-mArh-x0371_0_A_α
     RDKit          3D

 17 18  0  0  0  0  0  0  0  0999 V2000
   -1.5330   14.6390    1.7580 O   0  0  0  0  0  0  0  0  0  0  0  0
   -2.6080   14.7590    1.1750 C   0  0  0  0  0  0  0  0  0  0  0  0
   -3.9680   14.9010    1.8240 C   0  0  0  0  0  0  0  0  0  0  0  0
   -2.7900   14.7760   -0.1680 N   0  0  0  0  0  0  0  0  0  0  0  0
   -4.8350   15.0840    0.6940 N   0  0  0  0  0  0  0  0  0  0  0  0
   -4.0690   15.1310   -0.4700 C   0  0  0  0  0  0  0  0  0  0  0  0
   -4.4640   15.4330   -1.5820 O   0  0  0  0  0  0  0  0  0  0  0  0
   -6.2170   14.5800    0.7580 C   0  0  0  0  0  0  0  0  0  0  0  0
   -6.7490   14.3790    2.2110 C   0  0  0  0  0  0  0  0  0  0  0  0
   -8.1930   14.5380    2.4780 N   0  0  0  0  0  0  0  0  0  0  0  0
   -8.7540   15.5490    3.2710 C   0  0  0  0  0  0  0  0  0  0  0  0
   -9.3980   16.4440    2.7330 O   0  0  0  0  0  0  0  0  0  0  0  0
   -8.5880   15.5090    4.7300 C   0  0  0  0  0  0  0  0  0  0  0  0
   -8.0660   14.3890    5.3180 O   0  0  0  0  0  0  0  0  0  0  0  0
   -8.8690   16.4280    5.7350 C   0  0  0  0  0  0  0  0  0  0  0  0
   -8.0110   14.5900    6.6570 C   0  0  0  0  0  0  0  0  0  0  0  0
   -8.4980   15.8330    6.9690 C   0  0  0  0  0  0  0  0  0  0  0  0
  1  2  2  0
  2  3  1  0
  2  4  1  0
  3  5  1  0
  4  6  1  0
  5  6  1  0
  6  7  2  0
  5  8  1  0
  8  9  1  0
  9 10  1  0
 10 11  1  0
 11 12  2  0
 11 13  1  0
 13 14  1  0
 13 15  2  0
 14 16  1  0
 15 17  1  0
 16 17  2  0
M  END
>  <%Rank>  (106) 
8.015267

>  <N_hits>  (106) 
2

>  <submitter_name>  (106) 
nan

>  <original SMILES>  (106) 
nan

>  <∆G_unbound>  (106) 
1.194082

>  <∆G_bound>  (106) 
-6.117483

>  <regarded>  (106) 
mArh-x0895_0_A_α,mArh-x0371_0_A_α

>  <ref_pdb>  (106) 
nan

>  <smiles>  (106) 
O=C1CN(CCNC(=O)c2ccco2)C(=O)N1

>  <submitter_email>  (106) 
nan

>  <disregarded>  (106) 


>  <LE>  (106) 
-0.430092

>  <submitter_institution>  (106) 
nan

>  <ref_mols>  (106) 
mArh-x0895_0_A,mArh-x0371_0_A

>  <N_constrained_atoms>  (106) 
15.0

>  <ref_url>  (106) 
nan

>  <method>  (106) 
nan

>  <comRMSD>  (106) 
0.353275

>  <N_unconstrained_atoms>  (106) 
2.0

>  <∆∆G>  (106) 
-7.311565

>  <runtime>  (106) 
24.290844

>  <generation_date>  (106) 
nan

$$$$
mArh-2bfq_0_A_β-mArh-x0766_0_A_α
     RDKit          3D

 23 24  0  0  0  0  0  0  0  0999 V2000
   -1.5680   20.7460   -8.1990 O   0  0  0  0  0  0  0  0  0  0  0  0
   -0.2540   19.9280   -7.8350 P   0  0  0  0  0  0  0  0  0  0  0  0
   -0.4150   19.4990   -6.3340 O   0  0  0  0  0  0  0  0  0  0  0  0
    0.0560   18.7980   -8.7540 O   0  0  0  0  0  0  0  0  0  0  0  0
    0.8210   21.1050   -7.7700 O   0  0  0  0  0  0  0  0  0  0  0  0
   -1.5770   18.5030   -5.9340 P   0  0  1  0  0  0  0  0  0  0  0  0
   -0.8720   17.0880   -5.7470 O   0  0  0  0  0  0  0  0  0  0  0  0
   -2.3080   19.0210   -4.7760 O   0  0  0  0  0  0  0  0  0  0  0  0
   -2.4970   18.3190   -7.2140 O   0  0  0  0  0  0  0  0  0  0  0  0
   -0.4420   16.6470   -4.4650 C   0  0  0  0  0  0  0  0  0  0  0  0
   -0.1600   15.1570   -4.6660 C   0  0  1  0  0  0  0  0  0  0  0  0
    1.3250   14.8510   -4.8940 C   0  0  0  0  0  0  0  0  0  0  0  0
   -0.6130   14.1680   -3.5740 C   0  0  1  0  0  0  0  0  0  0  0  0
    0.7020   13.5630   -3.0990 C   0  0  2  0  0  0  0  0  0  0  0  0
    1.5340   13.4470   -4.3620 C   0  0  0  0  0  0  0  0  0  0  0  0
   -1.5940   14.6620   -2.5310 C   0  0  0  0  0  0  0  0  0  0  0  0
    0.4770   12.3270   -2.2980 C   0  0  0  0  0  0  0  0  0  0  0  0
   -2.9710   14.7260   -2.6600 C   0  0  0  0  0  0  0  0  0  0  0  0
   -1.1990   15.1370   -1.2280 C   0  0  0  0  0  0  0  0  0  0  0  0
    0.4420   12.3610   -1.0950 O   0  0  0  0  0  0  0  0  0  0  0  0
    0.2950   11.1840   -2.9720 O   0  0  0  0  0  0  0  0  0  0  0  0
   -2.2690   15.5250   -0.4500 C   0  0  0  0  0  0  0  0  0  0  0  0
   -3.7550   15.3320   -1.2670 S   0  0  0  0  0  0  0  0  0  0  0  0
  1  2  1  0
  2  3  1  0
  2  4  2  0
  2  5  1  0
  3  6  1  0
  6  7  1  0
  6  8  2  0
  6  9  1  6
  7 10  1  0
 11 10  1  1
 11 12  1  0
 11 13  1  0
 13 14  1  0
 12 15  1  0
 14 15  1  0
 13 16  1  1
 14 17  1  6
 16 18  2  0
 16 19  1  0
 17 20  2  0
 17 21  1  0
 19 22  2  0
 18 23  1  0
 22 23  1  0
M  END
>  <%Rank>  (107) 
8.091603

>  <N_hits>  (107) 
2

>  <submitter_name>  (107) 
nan

>  <original SMILES>  (107) 
nan

>  <∆G_unbound>  (107) 
0.799479

>  <∆G_bound>  (107) 
-11.843983

>  <regarded>  (107) 
mArh-2bfq_0_A_β,mArh-x0766_0_A_α

>  <ref_pdb>  (107) 
nan

>  <smiles>  (107) 
O=C(O)C1CCC(COP(=O)(O)OP(=O)(O)O)C1c1ccsc1

>  <submitter_email>  (107) 
nan

>  <disregarded>  (107) 


>  <LE>  (107) 
-0.549716

>  <submitter_institution>  (107) 
nan

>  <ref_mols>  (107) 
mArh-2bfq_0_A,mArh-x0766_0_A

>  <N_constrained_atoms>  (107) 
22.0

>  <ref_url>  (107) 
nan

>  <method>  (107) 
nan

>  <comRMSD>  (107) 
0.600156

>  <N_unconstrained_atoms>  (107) 
1.0

>  <∆∆G>  (107) 
-12.643462

>  <runtime>  (107) 
33.824899

>  <generation_date>  (107) 
nan

$$$$
5CMS_0_F_γ-mArh-x0969_0_A_α
     RDKit          3D

 20 22  0  0  0  0  0  0  0  0999 V2000
   -0.7720   12.2270   -4.0630 O   0  0  0  0  0  0  0  0  0  0  0  0
   -0.8510   13.6550   -4.0410 C   0  0  1  0  0  0  0  0  0  0  0  0
   -0.1350   14.2700   -2.8300 C   0  0  2  0  0  0  0  0  0  0  0  0
   -0.0310   14.2680   -5.1450 C   0  0  2  0  0  0  0  0  0  0  0  0
    1.2410   13.6410   -5.2300 O   0  0  0  0  0  0  0  0  0  0  0  0
   -1.0510   14.5910   -1.6650 C   0  0  0  0  0  0  0  0  0  0  0  0
    0.3980   15.5470   -3.2840 O   0  0  0  0  0  0  0  0  0  0  0  0
   -0.0480   15.7060   -4.6390 C   0  0  1  0  0  0  0  0  0  0  0  0
    0.7630   16.7740   -5.3570 C   0  0  0  0  0  0  0  0  0  0  0  0
   -2.2010   15.5230   -2.0310 C   0  0  0  0  0  0  0  0  0  0  0  0
   -3.3810   15.3440   -1.1390 C   0  0  0  0  0  0  0  0  0  0  0  0
   -4.6150   15.1140   -1.6300 C   0  0  0  0  0  0  0  0  0  0  0  0
   -3.1380   15.4200    0.2980 C   0  0  0  0  0  0  0  0  0  0  0  0
   -5.6990   14.9220   -0.7400 C   0  0  0  0  0  0  0  0  0  0  0  0
   -4.1600   15.2420    1.1390 C   0  0  0  0  0  0  0  0  0  0  0  0
   -6.9740   14.6740   -0.9300 N   0  0  0  0  0  0  0  0  0  0  0  0
   -5.4270   14.9880    0.6180 N   0  0  0  0  0  0  0  0  0  0  0  0
   -6.6500   14.7540    1.2250 C   0  0  0  0  0  0  0  0  0  0  0  0
   -7.5680   14.5670    0.3070 N   0  0  0  0  0  0  0  0  0  0  0  0
   -6.8200   14.7380    2.5620 N   0  0  0  0  0  0  0  0  0  0  0  0
  2  1  1  1
  2  3  1  0
  2  4  1  0
  4  5  1  1
  3  6  1  1
  3  7  1  0
  4  8  1  0
  7  8  1  0
  8  9  1  6
  6 10  1  0
 10 11  1  0
 11 12  2  0
 11 13  1  0
 12 14  1  0
 13 15  2  0
 14 16  2  0
 14 17  1  0
 15 17  1  0
 17 18  1  0
 16 19  1  0
 18 19  2  0
 18 20  1  0
M  END
>  <%Rank>  (108) 
8.167939

>  <N_hits>  (108) 
2

>  <submitter_name>  (108) 
nan

>  <original SMILES>  (108) 
nan

>  <∆G_unbound>  (108) 
0.250697

>  <∆G_bound>  (108) 
-6.098187

>  <regarded>  (108) 
5CMS_0_F_γ,mArh-x0969_0_A_α

>  <ref_pdb>  (108) 
nan

>  <smiles>  (108) 
CC1OC(CCc2ccn3c(N)nnc3c2)C(O)C1O

>  <submitter_email>  (108) 
nan

>  <disregarded>  (108) 


>  <LE>  (108) 
-0.317444

>  <submitter_institution>  (108) 
nan

>  <ref_mols>  (108) 
5CMS_0_F,mArh-x0969_0_A

>  <N_constrained_atoms>  (108) 
18.0

>  <ref_url>  (108) 
nan

>  <method>  (108) 
nan

>  <comRMSD>  (108) 
0.376281

>  <N_unconstrained_atoms>  (108) 
2.0

>  <∆∆G>  (108) 
-6.348884

>  <runtime>  (108) 
41.258566

>  <generation_date>  (108) 
nan

$$$$
6WOJ_0_A_α-mArh-x1012_0_A_α
     RDKit          3D

 24 25  0  0  0  0  0  0  0  0999 V2000
   -1.7370   21.9870   -7.7870 C   0  0  0  0  0  0  0  0  0  0  0  0
   -3.0790   22.3990   -8.3750 C   0  0  1  0  0  0  0  0  0  0  0  0
   -4.1440   21.5060   -8.0630 O   0  0  0  0  0  0  0  0  0  0  0  0
   -3.6060   23.7420   -7.9370 C   0  0  1  0  0  0  0  0  0  0  0  0
   -4.5710   24.1800   -8.8960 O   0  0  0  0  0  0  0  0  0  0  0  0
   -4.8800   22.0450   -6.9550 C   0  0  2  0  0  0  0  0  0  0  0  0
   -4.2540   23.3920   -6.5960 C   0  0  2  0  0  0  0  0  0  0  0  0
   -4.6440   21.0530   -5.9940 O   0  0  0  0  0  0  0  0  0  0  0  0
   -5.2640   24.3450   -6.2420 O   0  0  0  0  0  0  0  0  0  0  0  0
   -4.2020   20.0630   -6.9200 C   0  0  0  0  0  0  0  0  0  0  0  0
   -2.7640   19.5300   -6.7980 C   0  0  0  0  0  0  0  0  0  0  0  0
   -2.1700   19.4070   -5.4090 C   0  0  0  0  0  0  0  0  0  0  0  0
   -2.1500   17.9920   -5.0220 N   0  0  0  0  0  0  0  0  0  0  0  0
   -1.0410   17.3880   -4.8190 C   0  0  0  0  0  0  0  0  0  0  0  0
    0.0380   18.1850   -4.9460 N   0  0  0  0  0  0  0  0  0  0  0  0
   -0.6750   16.1010   -4.4920 N   0  0  0  0  0  0  0  0  0  0  0  0
   -1.6350   14.9970   -4.6180 C   0  0  0  0  0  0  0  0  0  0  0  0
    0.7410   15.7410   -4.5640 C   0  0  0  0  0  0  0  0  0  0  0  0
   -1.2660   13.7790   -3.7690 C   0  0  0  0  0  0  0  0  0  0  0  0
    1.0940   14.7260   -3.4960 C   0  0  0  0  0  0  0  0  0  0  0  0
    0.2420   13.4680   -3.6640 C   0  0  0  0  0  0  0  0  0  0  0  0
    0.4530   12.4980   -2.5080 C   0  0  0  0  0  0  0  0  0  0  0  0
    0.5050   11.2040   -2.8900 O   0  0  0  0  0  0  0  0  0  0  0  0
    0.5660   12.8220   -1.3300 O   0  0  0  0  0  0  0  0  0  0  0  0
  2  1  1  1
  2  3  1  0
  2  4  1  0
  4  5  1  6
  3  6  1  0
  4  7  1  0
  6  7  1  0
  6  8  1  1
  7  9  1  6
  8 10  1  0
 10 11  1  0
 11 12  1  0
 12 13  1  0
 13 14  2  3
 14 15  1  0
 14 16  1  0
 16 17  1  0
 16 18  1  0
 17 19  1  0
 18 20  1  0
 19 21  1  0
 20 21  1  0
 21 22  1  0
 22 23  1  0
 22 24  2  0
M  END
>  <%Rank>  (109) 
8.244275

>  <N_hits>  (109) 
2

>  <submitter_name>  (109) 
nan

>  <original SMILES>  (109) 
nan

>  <∆G_unbound>  (109) 
0.665885

>  <∆G_bound>  (109) 
-8.786534

>  <regarded>  (109) 
6WOJ_0_A_α,mArh-x1012_0_A_α

>  <ref_pdb>  (109) 
nan

>  <smiles>  (109) 
CC1OC(OCCCN=C(N)N2CCC(C(=O)O)CC2)C(O)C1O

>  <submitter_email>  (109) 
nan

>  <disregarded>  (109) 


>  <LE>  (109) 
-0.393851

>  <submitter_institution>  (109) 
nan

>  <ref_mols>  (109) 
6WOJ_0_A,mArh-x1012_0_A

>  <N_constrained_atoms>  (109) 
21.0

>  <ref_url>  (109) 
nan

>  <method>  (109) 
nan

>  <comRMSD>  (109) 
0.457354

>  <N_unconstrained_atoms>  (109) 
3.0

>  <∆∆G>  (109) 
-9.452419

>  <runtime>  (109) 
40.774469

>  <generation_date>  (109) 
nan

$$$$
5CMS_0_N_δ-mArh-5cb5_J_2_J_β
     RDKit          3D

 21 22  0  0  0  0  0  0  0  0999 V2000
   -3.7590   14.8710    1.1610 N   0  0  0  0  0  0  0  0  0  0  0  0
   -2.5400   15.3220    0.5310 C   0  0  2  0  0  0  0  0  0  0  0  0
   -2.3300   14.7360   -0.8670 C   0  0  2  0  0  0  0  0  0  0  0  0
   -1.4900   14.8810    1.4240 N   0  0  0  0  0  0  0  0  0  0  0  0
   -0.9300   15.1300   -1.2370 C   0  0  2  0  0  0  0  0  0  0  0  0
   -3.1240   15.1890   -2.0280 N   0  0  0  0  0  0  0  0  0  0  0  0
   -0.1500   15.1690    0.9280 C   0  0  0  0  0  0  0  0  0  0  0  0
   -0.8940   14.6690   -2.6050 N   0  0  0  0  0  0  0  0  0  0  0  0
   -2.1030   15.3420   -3.0730 C   0  0  1  0  0  0  0  0  0  0  0  0
    0.0760   14.5880   -0.3790 N   0  0  0  0  0  0  0  0  0  0  0  0
   -2.4760   14.8590   -4.4710 C   0  0  0  0  0  0  0  0  0  0  0  0
   -2.6270   16.0340   -5.4190 C   0  0  0  0  0  0  0  0  0  0  0  0
   -1.5180   16.9320   -5.3560 O   0  0  0  0  0  0  0  0  0  0  0  0
   -1.7080   18.3100   -6.1340 P   0  0  1  0  0  0  0  0  0  0  0  0
   -0.2810   18.8980   -6.4880 O   0  0  0  0  0  0  0  0  0  0  0  0
   -2.5880   18.1900   -7.2870 O   0  0  0  0  0  0  0  0  0  0  0  0
   -2.2340   19.3160   -5.0330 O   0  0  0  0  0  0  0  0  0  0  0  0
   -0.1560   19.7660   -7.8120 P   0  0  0  0  0  0  0  0  0  0  0  0
   -1.6170   20.2790   -8.1740 O   0  0  0  0  0  0  0  0  0  0  0  0
    0.8620   20.8410   -7.8060 O   0  0  0  0  0  0  0  0  0  0  0  0
    0.0630   18.6400   -8.9060 O   0  0  0  0  0  0  0  0  0  0  0  0
  2  1  1  1
  2  3  1  0
  2  4  1  0
  3  5  1  0
  3  6  1  6
  4  7  1  0
  5  8  1  6
  6  9  1  0
  8  9  1  0
  5 10  1  0
  7 10  1  0
  9 11  1  6
 11 12  1  0
 12 13  1  0
 13 14  1  0
 14 15  1  0
 14 16  2  0
 14 17  1  1
 15 18  1  0
 18 19  1  0
 18 20  2  0
 18 21  1  0
M  END
>  <%Rank>  (110) 
8.320611

>  <N_hits>  (110) 
2

>  <submitter_name>  (110) 
nan

>  <original SMILES>  (110) 
nan

>  <∆G_unbound>  (110) 
2.479234

>  <∆G_bound>  (110) 
-8.475356

>  <regarded>  (110) 
5CMS_0_N_δ,mArh-5cb5_J_2_J_β

>  <ref_pdb>  (110) 
nan

>  <smiles>  (110) 
NC1NCNC2NC(CCOP(=O)(O)OP(=O)(O)O)NC12

>  <submitter_email>  (110) 
nan

>  <disregarded>  (110) 


>  <LE>  (110) 
-0.521647

>  <submitter_institution>  (110) 
nan

>  <ref_mols>  (110) 
5CMS_0_N,mArh-5cb5_J_2_J

>  <N_constrained_atoms>  (110) 
19.0

>  <ref_url>  (110) 
nan

>  <method>  (110) 
nan

>  <comRMSD>  (110) 
0.50253

>  <N_unconstrained_atoms>  (110) 
2.0

>  <∆∆G>  (110) 
-10.95459

>  <runtime>  (110) 
28.417064

>  <generation_date>  (110) 
nan

$$$$
mArh-5cms_N_13_N_β-MAC-194_0_A_α
     RDKit          3D

 24 25  0  0  0  0  0  0  0  0999 V2000
   -1.3830   20.6970   -8.8450 O   0  0  0  0  0  0  0  0  0  0  0  0
   -0.4060   19.9220   -7.8770 P   0  0  0  0  0  0  0  0  0  0  0  0
   -1.2620   19.5860   -6.6040 O   0  0  0  0  0  0  0  0  0  0  0  0
    0.8910   20.5900   -7.6200 O   0  0  0  0  0  0  0  0  0  0  0  0
   -0.1780   18.5970   -8.7340 O   0  0  0  0  0  0  0  0  0  0  0  0
   -1.6680   18.1610   -6.1220 P   0  0  0  0  0  0  0  0  0  0  0  0
   -0.3290   17.3420   -6.3540 O   0  0  0  0  0  0  0  0  0  0  0  0
   -2.7890   17.5300   -6.8370 O   0  0  0  0  0  0  0  0  0  0  0  0
   -1.7430   18.1220   -4.5330 O   0  0  0  0  0  0  0  0  0  0  0  0
   -1.4060   16.8360   -4.0370 C   0  0  0  0  0  0  0  0  0  0  0  0
   -2.6410   15.9840   -4.2200 C   0  0  0  0  0  0  0  0  0  0  0  0
   -2.6150   14.7250   -3.3980 C   0  0  0  0  0  0  0  0  0  0  0  0
   -3.3610   14.7700   -2.0810 C   0  0  0  0  0  0  0  0  0  0  0  0
   -2.6600   14.8660   -0.8690 C   0  0  0  0  0  0  0  0  0  0  0  0
   -4.7650   14.7050   -2.0470 C   0  0  0  0  0  0  0  0  0  0  0  0
   -5.4320   14.7290   -0.8180 C   0  0  0  0  0  0  0  0  0  0  0  0
   -3.3430   14.8860    0.3520 C   0  0  0  0  0  0  0  0  0  0  0  0
   -6.9060   14.6610   -0.7250 C   0  0  0  0  0  0  0  0  0  0  0  0
   -4.7350   14.8150    0.3850 C   0  0  0  0  0  0  0  0  0  0  0  0
   -7.6260   14.7710   -1.7070 O   0  0  0  0  0  0  0  0  0  0  0  0
   -7.4140   14.4610    0.5360 N   0  0  0  0  0  0  0  0  0  0  0  0
   -5.3840   14.8310    1.6220 N   0  0  0  0  0  0  0  0  0  0  0  0
   -6.6680   14.6490    1.6630 C   0  0  0  0  0  0  0  0  0  0  0  0
   -7.3070   14.6470    2.8560 N   0  0  0  0  0  0  0  0  0  0  0  0
  1  2  1  0
  2  3  1  0
  2  4  2  0
  2  5  1  0
  3  6  1  0
  6  7  1  0
  6  8  2  0
  6  9  1  0
  9 10  1  0
 10 11  1  0
 11 12  1  0
 12 13  1  0
 13 14  2  0
 13 15  1  0
 15 16  2  0
 14 17  1  0
 16 18  1  0
 16 19  1  0
 17 19  2  0
 18 20  2  0
 18 21  1  0
 19 22  1  0
 21 23  1  0
 22 23  2  0
 23 24  1  0
M  END
>  <%Rank>  (111) 
8.396947

>  <N_hits>  (111) 
2

>  <submitter_name>  (111) 
nan

>  <original SMILES>  (111) 
nan

>  <∆G_unbound>  (111) 
0.469191

>  <∆G_bound>  (111) 
-12.709635

>  <regarded>  (111) 
mArh-5cms_N_13_N_β,MAC-194_0_A_α

>  <ref_pdb>  (111) 
nan

>  <smiles>  (111) 
Nc1nc2ccc(CCCOP(=O)(O)OP(=O)(O)O)cc2c(=O)[nH]1

>  <submitter_email>  (111) 
nan

>  <disregarded>  (111) 


>  <LE>  (111) 
-0.549118

>  <submitter_institution>  (111) 
nan

>  <ref_mols>  (111) 
mArh-5cms_N_13_N,MAC-194_0_A

>  <N_constrained_atoms>  (111) 
21.0

>  <ref_url>  (111) 
nan

>  <method>  (111) 
nan

>  <comRMSD>  (111) 
0.53715

>  <N_unconstrained_atoms>  (111) 
3.0

>  <∆∆G>  (111) 
-13.178826

>  <runtime>  (111) 
49.927595

>  <generation_date>  (111) 
nan

$$$$
mArh-5dus_0_A_β-4IQY_0_A_γ
     RDKit          3D

 16 16  0  0  0  0  0  0  0  0999 V2000
   -1.7660   20.4110   -8.0080 O   0  0  0  0  0  0  0  0  0  0  0  0
   -0.3210   19.8520   -7.6540 P   0  0  0  0  0  0  0  0  0  0  0  0
   -0.4580   19.2080   -6.2210 O   0  0  0  0  0  0  0  0  0  0  0  0
    0.7450   20.8720   -7.7540 O   0  0  0  0  0  0  0  0  0  0  0  0
   -0.1450   18.6470   -8.6880 O   0  0  0  0  0  0  0  0  0  0  0  0
   -1.3840   18.0070   -5.7860 P   0  0  2  0  0  0  0  0  0  0  0  0
   -0.3090   16.9010   -5.3130 O   0  0  0  0  0  0  0  0  0  0  0  0
   -2.4980   17.6110   -6.7010 O   0  0  0  0  0  0  0  0  0  0  0  0
   -1.9100   18.6700   -4.4290 O   0  0  0  0  0  0  0  0  0  0  0  0
   -0.6960   15.8030   -4.5160 C   0  0  2  0  0  0  0  0  0  0  0  0
   -0.2040   15.8600   -3.1740 O   0  0  0  0  0  0  0  0  0  0  0  0
   -0.2090   14.4140   -4.9350 C   0  0  1  0  0  0  0  0  0  0  0  0
    1.1990   14.1570   -4.7590 O   0  0  0  0  0  0  0  0  0  0  0  0
   -0.4970   14.5620   -2.6290 C   0  0  0  0  0  0  0  0  0  0  0  0
   -0.9180   13.6910   -3.8180 C   0  0  2  0  0  0  0  0  0  0  0  0
   -0.5020   12.3460   -3.7280 O   0  0  0  0  0  0  0  0  0  0  0  0
  1  2  1  0
  2  3  1  0
  2  4  2  0
  2  5  1  0
  3  6  1  0
  6  7  1  0
  6  8  2  0
  6  9  1  1
 10  7  1  6
 10 11  1  0
 10 12  1  0
 12 13  1  1
 11 14  1  0
 12 15  1  0
 14 15  1  0
 15 16  1  1
M  END
>  <%Rank>  (112) 
8.473282

>  <N_hits>  (112) 
2

>  <submitter_name>  (112) 
nan

>  <original SMILES>  (112) 
nan

>  <∆G_unbound>  (112) 
1.157846

>  <∆G_bound>  (112) 
-8.943661

>  <regarded>  (112) 
mArh-5dus_0_A_β,4IQY_0_A_γ

>  <ref_pdb>  (112) 
nan

>  <smiles>  (112) 
O=P(O)(O)OP(=O)(O)OC1OCC(O)C1O

>  <submitter_email>  (112) 
nan

>  <disregarded>  (112) 


>  <LE>  (112) 
-0.631344

>  <submitter_institution>  (112) 
nan

>  <ref_mols>  (112) 
mArh-5dus_0_A,4IQY_0_A

>  <N_constrained_atoms>  (112) 
16.0

>  <ref_url>  (112) 
nan

>  <method>  (112) 
nan

>  <comRMSD>  (112) 
0.549413

>  <N_unconstrained_atoms>  (112) 
0.0

>  <∆∆G>  (112) 
-10.101507

>  <runtime>  (112) 
25.17826

>  <generation_date>  (112) 
nan

$$$$
mArh-5cb3_0_A_γ-6WOJ_0_A_β
     RDKit          3D

 16 16  0  0  0  0  0  0  0  0999 V2000
   -1.7270   12.9020   -4.1060 O   0  0  0  0  0  0  0  0  0  0  0  0
   -0.5080   13.5190   -3.8500 C   0  0  2  0  0  0  0  0  0  0  0  0
   -0.5860   14.5460   -2.7230 C   0  0  0  0  0  0  0  0  0  0  0  0
   -0.0200   14.3180   -5.0310 C   0  0  2  0  0  0  0  0  0  0  0  0
    1.3590   14.1210   -5.0740 O   0  0  0  0  0  0  0  0  0  0  0  0
    0.0120   15.6920   -3.2590 O   0  0  0  0  0  0  0  0  0  0  0  0
   -0.4230   15.6680   -4.5670 C   0  0  1  0  0  0  0  0  0  0  0  0
    0.0100   16.9060   -5.3500 C   0  0  0  0  0  0  0  0  0  0  0  0
   -1.3170   17.9990   -5.6990 P   0  0  0  0  0  0  0  0  0  0  0  0
   -0.4950   19.2310   -6.0750 O   0  0  0  0  0  0  0  0  0  0  0  0
   -1.8290   19.0200   -4.4600 O   0  0  0  0  0  0  0  0  0  0  0  0
   -2.2150   18.0430   -7.0320 O   0  0  0  0  0  0  0  0  0  0  0  0
    0.0530   19.6600   -7.5090 P   0  0  0  0  0  0  0  0  0  0  0  0
   -1.2670   20.3160   -7.9390 O   0  0  0  0  0  0  0  0  0  0  0  0
    0.8080   21.1470   -7.7220 O   0  0  0  0  0  0  0  0  0  0  0  0
    0.0810   18.5690   -8.7370 O   0  0  0  0  0  0  0  0  0  0  0  0
  2  1  1  6
  2  3  1  0
  2  4  1  0
  4  5  1  1
  3  6  1  0
  4  7  1  0
  6  7  1  0
  7  8  1  6
  8  9  1  0
  9 10  1  0
  9 11  1  0
  9 12  1  0
 10 13  1  0
 13 14  1  0
 13 15  1  0
 13 16  1  0
M  CHG  2  11  -1  15  -1
M  END
>  <%Rank>  (113) 
8.549618

>  <N_hits>  (113) 
2

>  <submitter_name>  (113) 
nan

>  <original SMILES>  (113) 
nan

>  <∆G_unbound>  (113) 
0.683631

>  <∆G_bound>  (113) 
-7.723876

>  <regarded>  (113) 
mArh-5cb3_0_A_γ,6WOJ_0_A_β

>  <ref_pdb>  (113) 
nan

>  <smiles>  (113) 
[O-][PH](O)(O)O[PH]([O-])(O)CC1OCC(O)C1O

>  <submitter_email>  (113) 
nan

>  <disregarded>  (113) 


>  <LE>  (113) 
-0.525469

>  <submitter_institution>  (113) 
nan

>  <ref_mols>  (113) 
mArh-5cb3_0_A,6WOJ_0_A

>  <N_constrained_atoms>  (113) 
16.0

>  <ref_url>  (113) 
nan

>  <method>  (113) 
nan

>  <comRMSD>  (113) 
0.496554

>  <N_unconstrained_atoms>  (113) 
0.0

>  <∆∆G>  (113) 
-8.407507

>  <runtime>  (113) 
29.56401

>  <generation_date>  (113) 
nan

$$$$
mArh-5mqx_0_A_γ-mArh-x0371_0_A_β
     RDKit          3D

 20 22  0  0  0  0  0  0  0  0999 V2000
    0.2160   10.4820   -2.0930 O   0  0  0  0  0  0  0  0  0  0  0  0
   -0.8840   11.3760   -2.2990 C   0  0  1  0  0  0  0  0  0  0  0  0
   -0.5240   12.7870   -1.8050 C   0  0  0  0  0  0  0  0  0  0  0  0
   -1.1400   11.5990   -3.7780 C   0  0  2  0  0  0  0  0  0  0  0  0
    0.0780   11.5810   -4.5130 O   0  0  0  0  0  0  0  0  0  0  0  0
   -0.8450   13.7000   -2.8790 O   0  0  0  0  0  0  0  0  0  0  0  0
   -1.8020   12.9570   -3.6290 C   0  0  1  0  0  0  0  0  0  0  0  0
   -2.2520   13.6570   -4.9000 C   0  0  0  0  0  0  0  0  0  0  0  0
   -3.3760   14.6420   -4.5850 C   0  0  0  0  0  0  0  0  0  0  0  0
   -3.0270   15.5400   -3.4000 C   0  0  0  0  0  0  0  0  0  0  0  0
   -3.7330   15.2710   -2.0770 C   0  0  0  0  0  0  0  0  0  0  0  0
   -2.9750   15.0840   -0.9030 C   0  0  0  0  0  0  0  0  0  0  0  0
   -5.1350   15.2030   -2.0010 C   0  0  0  0  0  0  0  0  0  0  0  0
   -5.7420   14.9490   -0.7630 C   0  0  0  0  0  0  0  0  0  0  0  0
   -3.5640   14.8360    0.3410 C   0  0  0  0  0  0  0  0  0  0  0  0
   -4.9510   14.7740    0.3620 C   0  0  0  0  0  0  0  0  0  0  0  0
   -7.0730   14.8300   -0.4400 N   0  0  0  0  0  0  0  0  0  0  0  0
   -7.1060   14.5830    0.8530 C   0  0  0  0  0  0  0  0  0  0  0  0
   -5.8350   14.5440    1.3770 N   0  0  0  0  0  0  0  0  0  0  0  0
   -8.3060   14.3690    1.6900 C   0  0  0  0  0  0  0  0  0  0  0  0
  2  1  1  6
  2  3  1  0
  2  4  1  0
  4  5  1  6
  3  6  1  0
  4  7  1  0
  6  7  1  0
  7  8  1  6
  8  9  1  0
  9 10  1  0
 10 11  1  0
 11 12  2  0
 11 13  1  0
 13 14  2  0
 12 15  1  0
 14 16  1  0
 15 16  2  0
 14 17  1  0
 17 18  2  0
 16 19  1  0
 18 19  1  0
 18 20  1  0
M  END
>  <%Rank>  (114) 
8.625954

>  <N_hits>  (114) 
2

>  <submitter_name>  (114) 
nan

>  <original SMILES>  (114) 
nan

>  <∆G_unbound>  (114) 
0.062225

>  <∆G_bound>  (114) 
-6.613619

>  <regarded>  (114) 
mArh-5mqx_0_A_γ,mArh-x0371_0_A_β

>  <ref_pdb>  (114) 
nan

>  <smiles>  (114) 
Cc1nc2cc(CCCC3OCC(O)C3O)ccc2[nH]1

>  <submitter_email>  (114) 
nan

>  <disregarded>  (114) 


>  <LE>  (114) 
-0.333792

>  <submitter_institution>  (114) 
nan

>  <ref_mols>  (114) 
mArh-5mqx_0_A,mArh-x0371_0_A

>  <N_constrained_atoms>  (114) 
18.0

>  <ref_url>  (114) 
nan

>  <method>  (114) 
nan

>  <comRMSD>  (114) 
0.394188

>  <N_unconstrained_atoms>  (114) 
2.0

>  <∆∆G>  (114) 
-6.675844

>  <runtime>  (114) 
34.970836

>  <generation_date>  (114) 
nan

$$$$
mArh-x0290_0_A_α-mArh-5cms_D_3_D_α
     RDKit          3D

 24 24  0  0  0  0  0  0  0  0999 V2000
   -7.6710   13.8140    0.8460 N   0  0  0  0  0  0  0  0  0  0  0  0
   -8.6010   14.9110    0.7170 C   0  0  0  0  0  0  0  0  0  0  0  0
   -6.5060   14.1280    1.6130 C   0  0  0  0  0  0  0  0  0  0  0  0
   -5.2870   14.3780    0.8380 C   0  0  0  0  0  0  0  0  0  0  0  0
   -5.2960   14.1920   -0.3980 O   0  0  0  0  0  0  0  0  0  0  0  0
   -4.0650   14.8320    1.4470 N   0  0  0  0  0  0  0  0  0  0  0  0
   -2.8030   14.7480    0.8050 C   0  0  0  0  0  0  0  0  0  0  0  0
   -1.7020   14.6350    1.5610 N   0  0  0  0  0  0  0  0  0  0  0  0
   -2.6510   14.7780   -0.5620 C   0  0  0  0  0  0  0  0  0  0  0  0
   -0.4720   14.5690    0.9790 C   0  0  0  0  0  0  0  0  0  0  0  0
   -1.4080   14.7050   -1.2090 C   0  0  0  0  0  0  0  0  0  0  0  0
   -1.4450   14.7400   -2.7200 C   0  0  0  0  0  0  0  0  0  0  0  0
   -0.3000   14.6010   -0.3920 C   0  0  0  0  0  0  0  0  0  0  0  0
   -0.2150   15.3210   -3.4120 C   0  0  0  0  0  0  0  0  0  0  0  0
   -0.5950   15.6090   -4.8720 C   0  0  0  0  0  0  0  0  0  0  0  0
   -0.4000   16.9330   -5.2090 O   0  0  0  0  0  0  0  0  0  0  0  0
   -1.7960   17.6870   -5.7260 P   0  0  0  0  0  0  0  0  0  0  0  0
   -2.9030   16.8180   -6.6010 O   0  0  0  0  0  0  0  0  0  0  0  0
   -2.1550   19.1610   -5.1840 O   0  0  0  0  0  0  0  0  0  0  0  0
   -1.2200   18.0800   -7.0810 O   0  0  0  0  0  0  0  0  0  0  0  0
   -0.6590   19.5440   -7.5920 P   0  0  0  0  0  0  0  0  0  0  0  0
   -1.6050   20.5230   -8.4900 O   0  0  0  0  0  0  0  0  0  0  0  0
   -0.0340   18.7780   -8.7470 O   0  0  0  0  0  0  0  0  0  0  0  0
    0.8550   20.0640   -7.2420 O   0  0  0  0  0  0  0  0  0  0  0  0
  1  2  1  0
  1  3  1  0
  3  4  1  0
  4  5  2  0
  4  6  1  0
  6  7  1  0
  7  8  2  0
  7  9  1  0
  8 10  1  0
  9 11  2  0
 11 12  1  0
 10 13  2  0
 11 13  1  0
 12 14  1  0
 14 15  1  0
 15 16  1  0
 16 17  1  0
 17 18  1  0
 17 19  1  0
 17 20  1  0
 20 21  1  0
 21 22  1  0
 21 23  1  0
 21 24  1  0
M  CHG  2  18  -1  23  -1
M  END
>  <%Rank>  (115) 
8.70229

>  <N_hits>  (115) 
2

>  <submitter_name>  (115) 
nan

>  <original SMILES>  (115) 
nan

>  <∆G_unbound>  (115) 
1.351708

>  <∆G_bound>  (115) 
-11.706746

>  <regarded>  (115) 
mArh-x0290_0_A_α,mArh-5cms_D_3_D_α

>  <ref_pdb>  (115) 
nan

>  <smiles>  (115) 
CNCC(=O)Nc1cc(CCCO[PH]([O-])(O)O[PH]([O-])(O)O)ccn1

>  <submitter_email>  (115) 
nan

>  <disregarded>  (115) 


>  <LE>  (115) 
-0.544102

>  <submitter_institution>  (115) 
nan

>  <ref_mols>  (115) 
mArh-x0290_0_A,mArh-5cms_D_3_D

>  <N_constrained_atoms>  (115) 
22.0

>  <ref_url>  (115) 
nan

>  <method>  (115) 
nan

>  <comRMSD>  (115) 
0.585132

>  <N_unconstrained_atoms>  (115) 
2.0

>  <∆∆G>  (115) 
-13.058454

>  <runtime>  (115) 
54.354308

>  <generation_date>  (115) 
nan

$$$$
5CB5_0_E_γ-mArh-x0722_0_A_α
     RDKit          3D

 20 21  0  0  0  0  0  0  0  0999 V2000
   -0.6000   12.2870   -4.0160 O   0  0  0  0  0  0  0  0  0  0  0  0
   -1.0040   13.6530   -4.1190 C   0  0  1  0  0  0  0  0  0  0  0  0
   -0.8570   14.3900   -2.7670 C   0  0  2  0  0  0  0  0  0  0  0  0
   -0.0710   14.3860   -5.0510 C   0  0  2  0  0  0  0  0  0  0  0  0
    1.2670   13.9500   -4.8220 O   0  0  0  0  0  0  0  0  0  0  0  0
   -2.2550   14.4350   -2.1100 C   0  0  0  0  0  0  0  0  0  0  0  0
   -0.3490   15.7090   -3.1320 O   0  0  0  0  0  0  0  0  0  0  0  0
   -0.3210   15.8150   -4.5750 C   0  0  1  0  0  0  0  0  0  0  0  0
    0.7090   16.8490   -5.0080 C   0  0  0  0  0  0  0  0  0  0  0  0
   -2.4590   14.7260   -0.6380 C   0  0  0  0  0  0  0  0  0  0  0  0
   -3.6290   15.2340   -0.1060 C   0  0  0  0  0  0  0  0  0  0  0  0
   -1.6050   14.5720    0.4540 N   0  0  0  0  0  0  0  0  0  0  0  0
   -0.2440   14.0920    0.5350 C   0  0  0  0  0  0  0  0  0  0  0  0
   -4.8870   15.5990   -0.8400 C   0  0  0  0  0  0  0  0  0  0  0  0
   -2.1700   14.9410    1.6080 N   0  0  0  0  0  0  0  0  0  0  0  0
   -3.3900   15.3440    1.2710 C   0  0  0  0  0  0  0  0  0  0  0  0
   -4.3020   15.8400    2.3000 C   0  0  0  0  0  0  0  0  0  0  0  0
   -6.0680   14.7000   -0.5360 C   0  0  0  0  0  0  0  0  0  0  0  0
   -7.2320   15.0380   -0.7400 O   0  0  0  0  0  0  0  0  0  0  0  0
   -5.7900   13.4710   -0.0080 N   0  0  0  0  0  0  0  0  0  0  0  0
  2  1  1  1
  2  3  1  0
  2  4  1  0
  4  5  1  1
  3  6  1  6
  3  7  1  0
  4  8  1  0
  7  8  1  0
  8  9  1  1
  6 10  1  0
 10 11  2  0
 10 12  1  0
 12 13  1  0
 11 14  1  0
 12 15  1  0
 11 16  1  0
 15 16  2  0
 16 17  1  0
 14 18  1  0
 18 19  2  0
 18 20  1  0
M  END
>  <%Rank>  (116) 
8.778626

>  <N_hits>  (116) 
2

>  <submitter_name>  (116) 
nan

>  <original SMILES>  (116) 
nan

>  <∆G_unbound>  (116) 
0.743302

>  <∆G_bound>  (116) 
-6.768599

>  <regarded>  (116) 
5CB5_0_E_γ,mArh-x0722_0_A_α

>  <ref_pdb>  (116) 
nan

>  <smiles>  (116) 
Cc1nn(C)c(CC2OC(C)C(O)C2O)c1CC(N)=O

>  <submitter_email>  (116) 
nan

>  <disregarded>  (116) 


>  <LE>  (116) 
-0.375595

>  <submitter_institution>  (116) 
nan

>  <ref_mols>  (116) 
5CB5_0_E,mArh-x0722_0_A

>  <N_constrained_atoms>  (116) 
20.0

>  <ref_url>  (116) 
nan

>  <method>  (116) 
nan

>  <comRMSD>  (116) 
0.511138

>  <N_unconstrained_atoms>  (116) 
0.0

>  <∆∆G>  (116) 
-7.511901

>  <runtime>  (116) 
32.003257

>  <generation_date>  (116) 
nan

$$$$
mArh-5cb5_D_0_D_γ-mArh-6woj_B_0_B_β
     RDKit          3D

 16 16  0  0  0  0  0  0  0  0999 V2000
   -0.4060   12.5330   -4.0410 O   0  0  0  0  0  0  0  0  0  0  0  0
    0.2610   13.7710   -3.9940 C   0  0  2  0  0  0  0  0  0  0  0  0
   -0.1670   14.6850   -2.8580 C   0  0  0  0  0  0  0  0  0  0  0  0
   -0.0170   14.5940   -5.2300 C   0  0  2  0  0  0  0  0  0  0  0  0
    1.2170   14.6010   -5.9200 O   0  0  0  0  0  0  0  0  0  0  0  0
    0.1200   16.0030   -3.3380 O   0  0  0  0  0  0  0  0  0  0  0  0
   -0.4020   15.9680   -4.6740 C   0  0  1  0  0  0  0  0  0  0  0  0
    0.0730   17.1980   -5.4220 C   0  0  0  0  0  0  0  0  0  0  0  0
   -1.2840   18.3280   -5.7250 P   0  0  2  0  0  0  0  0  0  0  0  0
   -0.7670   19.6310   -6.4250 O   0  0  0  0  0  0  0  0  0  0  0  0
   -1.8920   18.6790   -4.4320 O   0  0  0  0  0  0  0  0  0  0  0  0
   -2.3560   17.6550   -6.7160 O   0  0  0  0  0  0  0  0  0  0  0  0
   -0.0710   20.0350   -7.7550 P   0  0  0  0  0  0  0  0  0  0  0  0
   -1.2810   20.7290   -8.5140 O   0  0  0  0  0  0  0  0  0  0  0  0
    1.1410   20.8970   -7.6410 O   0  0  0  0  0  0  0  0  0  0  0  0
    0.0580   18.7200   -8.6670 O   0  0  0  0  0  0  0  0  0  0  0  0
  2  1  1  6
  2  3  1  0
  2  4  1  0
  4  5  1  6
  3  6  1  0
  4  7  1  0
  6  7  1  0
  7  8  1  6
  8  9  1  0
  9 10  1  0
  9 11  2  0
  9 12  1  6
 10 13  1  0
 13 14  1  0
 13 15  2  0
 13 16  1  0
M  END
>  <%Rank>  (117) 
8.854962

>  <N_hits>  (117) 
2

>  <submitter_name>  (117) 
nan

>  <original SMILES>  (117) 
nan

>  <∆G_unbound>  (117) 
1.057928

>  <∆G_bound>  (117) 
-9.325163

>  <regarded>  (117) 
mArh-5cb5_D_0_D_γ,mArh-6woj_B_0_B_β

>  <ref_pdb>  (117) 
nan

>  <smiles>  (117) 
O=P(O)(O)OP(=O)(O)CC1OCC(O)C1O

>  <submitter_email>  (117) 
nan

>  <disregarded>  (117) 


>  <LE>  (117) 
-0.648943

>  <submitter_institution>  (117) 
nan

>  <ref_mols>  (117) 
mArh-5cb5_D_0_D,mArh-6woj_B_0_B

>  <N_constrained_atoms>  (117) 
16.0

>  <ref_url>  (117) 
nan

>  <method>  (117) 
nan

>  <comRMSD>  (117) 
0.565529

>  <N_unconstrained_atoms>  (117) 
0.0

>  <∆∆G>  (117) 
-10.383091

>  <runtime>  (117) 
34.568843

>  <generation_date>  (117) 
nan

$$$$
mArh-6woj_C_0_C_α-6WOJ_0_C_β
     RDKit          3D

 17 17  0  0  0  0  0  0  0  0999 V2000
   -1.7790   21.5460   -7.2010 C   0  0  0  0  0  0  0  0  0  0  0  0
   -0.5300   20.4500   -7.7760 P   0  0  0  0  0  0  0  0  0  0  0  0
   -0.4120   19.6560   -6.4560 O   0  0  0  0  0  0  0  0  0  0  0  0
   -2.9710   21.9450   -8.0580 C   0  0  1  0  0  0  0  0  0  0  0  0
    1.0160   20.9020   -7.6530 O   0  0  0  0  0  0  0  0  0  0  0  0
   -0.8390   18.9250   -8.4740 O   0  0  0  0  0  0  0  0  0  0  0  0
   -4.1050   21.2360   -7.7040 O   0  0  0  0  0  0  0  0  0  0  0  0
   -3.3950   23.4090   -7.8380 C   0  0  1  0  0  0  0  0  0  0  0  0
   -4.2540   23.8330   -8.8470 O   0  0  0  0  0  0  0  0  0  0  0  0
   -1.1500   18.2050   -6.1230 P   0  0  0  0  0  0  0  0  0  0  0  0
   -4.9090   21.9780   -6.8560 C   0  0  2  0  0  0  0  0  0  0  0  0
   -4.2330   23.2610   -6.5720 C   0  0  2  0  0  0  0  0  0  0  0  0
   -5.1950   21.3790   -5.6370 O   0  0  0  0  0  0  0  0  0  0  0  0
   -5.1790   24.3130   -6.5120 O   0  0  0  0  0  0  0  0  0  0  0  0
   -0.2900   16.9940   -5.3360 O   0  0  0  0  0  0  0  0  0  0  0  0
   -1.5930   18.7240   -4.7500 O   0  0  0  0  0  0  0  0  0  0  0  0
   -2.5870   17.8260   -6.7260 O   0  0  0  0  0  0  0  0  0  0  0  0
  1  2  1  0
  2  3  1  0
  4  1  1  1
  2  5  1  0
  2  6  1  0
  4  7  1  0
  4  8  1  0
  8  9  1  6
  3 10  1  0
  7 11  1  0
  8 12  1  0
 11 12  1  0
 11 13  1  1
 12 14  1  6
 10 15  1  0
 10 16  1  0
 10 17  1  0
M  CHG  2   5  -1  16  -1
M  END
>  <%Rank>  (118) 
8.931298

>  <N_hits>  (118) 
2

>  <submitter_name>  (118) 
nan

>  <original SMILES>  (118) 
nan

>  <∆G_unbound>  (118) 
1.818629

>  <∆G_bound>  (118) 
-9.823432

>  <regarded>  (118) 
mArh-6woj_C_0_C_α,6WOJ_0_C_β

>  <ref_pdb>  (118) 
nan

>  <smiles>  (118) 
[O-][PH](O)(O)O[PH]([O-])(O)CC1OC(O)C(O)C1O

>  <submitter_email>  (118) 
nan

>  <disregarded>  (118) 


>  <LE>  (118) 
-0.684827

>  <submitter_institution>  (118) 
nan

>  <ref_mols>  (118) 
mArh-6woj_C_0_C,6WOJ_0_C

>  <N_constrained_atoms>  (118) 
17.0

>  <ref_url>  (118) 
nan

>  <method>  (118) 
nan

>  <comRMSD>  (118) 
0.606086

>  <N_unconstrained_atoms>  (118) 
0.0

>  <∆∆G>  (118) 
-11.64206

>  <runtime>  (118) 
32.302251

>  <generation_date>  (118) 
nan

$$$$
mArh-5cb5_I_0_I_β-mArh-mac-194_0_A_α
     RDKit          3D

 24 25  0  0  0  0  0  0  0  0999 V2000
   -1.4090   20.8320   -8.5970 O   0  0  0  0  0  0  0  0  0  0  0  0
   -0.4270   19.9240   -7.7430 P   0  0  0  0  0  0  0  0  0  0  0  0
   -1.2410   19.4650   -6.4530 O   0  0  0  0  0  0  0  0  0  0  0  0
    0.9100   20.5210   -7.5060 O   0  0  0  0  0  0  0  0  0  0  0  0
   -0.2530   18.6650   -8.7180 O   0  0  0  0  0  0  0  0  0  0  0  0
   -1.6940   17.9820   -6.1820 P   0  0  0  0  0  0  0  0  0  0  0  0
   -0.2900   17.2330   -6.2130 O   0  0  0  0  0  0  0  0  0  0  0  0
   -2.6430   17.4580   -7.1590 O   0  0  0  0  0  0  0  0  0  0  0  0
   -2.1940   17.6390   -4.7070 O   0  0  0  0  0  0  0  0  0  0  0  0
   -2.9290   16.3900   -4.5750 C   0  0  0  0  0  0  0  0  0  0  0  0
   -2.0330   15.1920   -4.3850 C   0  0  0  0  0  0  0  0  0  0  0  0
   -1.7360   14.8450   -2.9200 C   0  0  0  0  0  0  0  0  0  0  0  0
   -2.8430   14.8110   -1.8390 C   0  0  0  0  0  0  0  0  0  0  0  0
   -2.3540   14.7660   -0.5290 C   0  0  0  0  0  0  0  0  0  0  0  0
   -4.2650   14.8130   -2.0130 C   0  0  0  0  0  0  0  0  0  0  0  0
   -5.1120   14.7660   -0.8580 C   0  0  0  0  0  0  0  0  0  0  0  0
   -3.1910   14.7230    0.5750 C   0  0  0  0  0  0  0  0  0  0  0  0
   -6.6050   14.7540   -0.9010 C   0  0  0  0  0  0  0  0  0  0  0  0
   -4.5640   14.7220    0.4240 C   0  0  0  0  0  0  0  0  0  0  0  0
   -7.2340   14.8760   -1.9400 O   0  0  0  0  0  0  0  0  0  0  0  0
   -7.2570   14.5860    0.3150 N   0  0  0  0  0  0  0  0  0  0  0  0
   -5.3260   14.6730    1.5900 N   0  0  0  0  0  0  0  0  0  0  0  0
   -6.6040   14.6060    1.5130 C   0  0  0  0  0  0  0  0  0  0  0  0
   -7.3240   14.5510    2.6620 N   0  0  0  0  0  0  0  0  0  0  0  0
  1  2  1  0
  2  3  1  0
  2  4  2  0
  2  5  1  0
  3  6  1  0
  6  7  1  0
  6  8  2  0
  6  9  1  0
  9 10  1  0
 10 11  1  0
 11 12  1  0
 12 13  1  0
 13 14  2  0
 13 15  1  0
 15 16  2  0
 14 17  1  0
 16 18  1  0
 16 19  1  0
 17 19  2  0
 18 20  2  0
 18 21  1  0
 19 22  1  0
 21 23  1  0
 22 23  2  0
 23 24  1  0
M  END
>  <%Rank>  (119) 
9.007634

>  <N_hits>  (119) 
2

>  <submitter_name>  (119) 
nan

>  <original SMILES>  (119) 
nan

>  <∆G_unbound>  (119) 
0.469191

>  <∆G_bound>  (119) 
-11.990953

>  <regarded>  (119) 
mArh-5cb5_I_0_I_β,mArh-mac-194_0_A_α

>  <ref_pdb>  (119) 
nan

>  <smiles>  (119) 
Nc1nc2ccc(CCCOP(=O)(O)OP(=O)(O)O)cc2c(=O)[nH]1

>  <submitter_email>  (119) 
nan

>  <disregarded>  (119) 


>  <LE>  (119) 
-0.519173

>  <submitter_institution>  (119) 
nan

>  <ref_mols>  (119) 
mArh-5cb5_I_0_I,mArh-mac-194_0_A

>  <N_constrained_atoms>  (119) 
21.0

>  <ref_url>  (119) 
nan

>  <method>  (119) 
nan

>  <comRMSD>  (119) 
0.53268

>  <N_unconstrained_atoms>  (119) 
3.0

>  <∆∆G>  (119) 
-12.460144

>  <runtime>  (119) 
48.340804

>  <generation_date>  (119) 
nan

$$$$
mArh-x0797_0_B_α-mArh-5cb5_O_0_O_β
     RDKit          3D

 30 31  0  0  0  0  0  0  0  0999 V2000
   -7.8880   29.9920  -14.7380 C   0  0  0  0  0  0  0  0  0  0  0  0
   -6.6360   29.5740  -14.0130 C   0  0  0  0  0  0  0  0  0  0  0  0
   -5.4220   30.1220  -14.4600 C   0  0  0  0  0  0  0  0  0  0  0  0
   -6.6340   28.6700  -12.9260 C   0  0  0  0  0  0  0  0  0  0  0  0
   -5.4010   28.3640  -12.3290 C   0  0  0  0  0  0  0  0  0  0  0  0
   -4.2150   29.7970  -13.8530 C   0  0  0  0  0  0  0  0  0  0  0  0
   -7.9090   28.0400  -12.4100 C   0  0  1  0  0  0  0  0  0  0  0  0
   -4.2110   28.9160  -12.7830 C   0  0  0  0  0  0  0  0  0  0  0  0
   -8.2290   26.5580  -12.6440 C   0  0  1  0  0  0  0  0  0  0  0  0
   -8.1190   28.1860  -10.9280 C   0  0  0  0  0  0  0  0  0  0  0  0
   -7.3090   25.7730  -13.5660 C   0  0  0  0  0  0  0  0  0  0  0  0
   -7.7830   26.9200  -10.3440 O   0  0  0  0  0  0  0  0  0  0  0  0
   -8.2320   25.9220  -11.2610 C   0  0  0  0  0  0  0  0  0  0  0  0
   -7.7260   25.7890  -14.8400 O   0  0  0  0  0  0  0  0  0  0  0  0
   -6.2280   25.1490  -13.1730 N   0  0  0  0  0  0  0  0  0  0  0  0
   -5.6790   25.0930  -11.7990 C   0  0  0  0  0  0  0  0  0  0  0  0
   -5.3540   23.6460  -11.3110 C   0  0  0  0  0  0  0  0  0  0  0  0
   -4.6680   23.6060   -9.9160 C   0  0  0  0  0  0  0  0  0  0  0  0
   -4.0560   22.2790   -9.4010 C   0  0  0  0  0  0  0  0  0  0  0  0
   -3.0400   22.5460   -8.2570 C   0  0  0  0  0  0  0  0  0  0  0  0
   -2.4860   21.2920   -7.5580 C   0  0  0  0  0  0  0  0  0  0  0  0
   -1.6780   20.5040   -8.4280 O   0  0  0  0  0  0  0  0  0  0  0  0
   -0.2630   19.9360   -7.9070 P   0  0  2  0  0  0  0  0  0  0  0  0
   -0.4210   19.2270   -6.5070 O   0  0  0  0  0  0  0  0  0  0  0  0
    0.8330   20.9440   -7.8800 O   0  0  0  0  0  0  0  0  0  0  0  0
   -0.0220   18.6980   -8.8820 O   0  0  0  0  0  0  0  0  0  0  0  0
   -1.6450   18.3200   -6.1120 P   0  0  0  0  0  0  0  0  0  0  0  0
   -1.0160   17.1030   -5.3040 O   0  0  0  0  0  0  0  0  0  0  0  0
   -2.6150   17.9110   -7.1350 O   0  0  0  0  0  0  0  0  0  0  0  0
   -2.2840   19.2130   -4.9620 O   0  0  0  0  0  0  0  0  0  0  0  0
  1  2  1  0
  2  3  2  0
  2  4  1  0
  4  5  2  0
  3  6  1  0
  7  4  1  1
  5  8  1  0
  6  8  2  0
  7  9  1  0
  7 10  1  0
  9 11  1  6
 10 12  1  0
  9 13  1  0
 12 13  1  0
 11 14  1  0
 11 15  2  3
 15 16  1  0
 16 17  1  0
 17 18  1  0
 18 19  1  0
 19 20  1  0
 20 21  1  0
 21 22  1  0
 22 23  1  0
 23 24  1  0
 23 25  2  0
 23 26  1  6
 24 27  1  0
 27 28  1  0
 27 29  2  0
 27 30  1  0
M  END
>  <%Rank>  (120) 
9.083969

>  <N_hits>  (120) 
2

>  <submitter_name>  (120) 
nan

>  <original SMILES>  (120) 
nan

>  <∆G_unbound>  (120) 
1.229984

>  <∆G_bound>  (120) 
-12.991917

>  <regarded>  (120) 
mArh-x0797_0_B_α,mArh-5cb5_O_0_O_β

>  <ref_pdb>  (120) 
nan

>  <smiles>  (120) 
Cc1ccccc1C1COCC1C(O)=NCCCCCCOP(=O)(O)OP(=O)(O)O

>  <submitter_email>  (120) 
nan

>  <disregarded>  (120) 


>  <LE>  (120) 
-0.474063

>  <submitter_institution>  (120) 
nan

>  <ref_mols>  (120) 
mArh-x0797_0_B,mArh-5cb5_O_0_O

>  <N_constrained_atoms>  (120) 
24.0

>  <ref_url>  (120) 
nan

>  <method>  (120) 
nan

>  <comRMSD>  (120) 
0.508038

>  <N_unconstrained_atoms>  (120) 
6.0

>  <∆∆G>  (120) 
-14.221901

>  <runtime>  (120) 
40.712129

>  <generation_date>  (120) 
nan

$$$$
mArh-5cb5_L_0_L_β-5CB5_0_M_γ
     RDKit          3D

 16 16  0  0  0  0  0  0  0  0999 V2000
   -1.5480   20.4590   -8.4030 O   0  0  0  0  0  0  0  0  0  0  0  0
   -0.1870   19.9100   -7.7880 P   0  0  0  0  0  0  0  0  0  0  0  0
   -0.5530   19.3680   -6.3600 O   0  0  0  0  0  0  0  0  0  0  0  0
    0.8980   20.9160   -7.8030 O   0  0  0  0  0  0  0  0  0  0  0  0
    0.0840   18.6320   -8.7260 O   0  0  0  0  0  0  0  0  0  0  0  0
   -1.4160   18.0830   -6.0670 P   0  0  2  0  0  0  0  0  0  0  0  0
   -0.3770   16.8870   -5.8130 O   0  0  0  0  0  0  0  0  0  0  0  0
   -2.5610   17.8340   -6.9730 O   0  0  0  0  0  0  0  0  0  0  0  0
   -1.8640   18.4020   -4.5750 O   0  0  0  0  0  0  0  0  0  0  0  0
   -0.7790   15.8760   -4.9010 C   0  0  2  0  0  0  0  0  0  0  0  0
   -0.2450   16.0520   -3.5890 O   0  0  0  0  0  0  0  0  0  0  0  0
   -0.3920   14.4250   -5.2380 C   0  0  1  0  0  0  0  0  0  0  0  0
    1.0200   14.1650   -5.3360 O   0  0  0  0  0  0  0  0  0  0  0  0
   -0.4700   14.8020   -2.9100 C   0  0  0  0  0  0  0  0  0  0  0  0
   -0.8990   13.7830   -3.9680 C   0  0  2  0  0  0  0  0  0  0  0  0
   -0.3360   12.4970   -3.7770 O   0  0  0  0  0  0  0  0  0  0  0  0
  1  2  1  0
  2  3  1  0
  2  4  2  0
  2  5  1  0
  3  6  1  0
  6  7  1  0
  6  8  2  0
  6  9  1  1
 10  7  1  6
 10 11  1  0
 10 12  1  0
 12 13  1  1
 11 14  1  0
 12 15  1  0
 14 15  1  0
 15 16  1  1
M  END
>  <%Rank>  (121) 
9.160305

>  <N_hits>  (121) 
2

>  <submitter_name>  (121) 
nan

>  <original SMILES>  (121) 
nan

>  <∆G_unbound>  (121) 
1.157846

>  <∆G_bound>  (121) 
-8.068141

>  <regarded>  (121) 
mArh-5cb5_L_0_L_β,5CB5_0_M_γ

>  <ref_pdb>  (121) 
nan

>  <smiles>  (121) 
O=P(O)(O)OP(=O)(O)OC1OCC(O)C1O

>  <submitter_email>  (121) 
nan

>  <disregarded>  (121) 


>  <LE>  (121) 
-0.576624

>  <submitter_institution>  (121) 
nan

>  <ref_mols>  (121) 
mArh-5cb5_L_0_L,5CB5_0_M

>  <N_constrained_atoms>  (121) 
16.0

>  <ref_url>  (121) 
nan

>  <method>  (121) 
nan

>  <comRMSD>  (121) 
0.533027

>  <N_unconstrained_atoms>  (121) 
0.0

>  <∆∆G>  (121) 
-9.225987

>  <runtime>  (121) 
27.322868

>  <generation_date>  (121) 
nan

$$$$
mArh-6woj_B_0_B_α-6WOJ_0_C_β
     RDKit          3D

 17 17  0  0  0  0  0  0  0  0999 V2000
   -1.8490   21.5350   -7.2030 C   0  0  0  0  0  0  0  0  0  0  0  0
   -0.5770   20.4550   -7.7780 P   0  0  0  0  0  0  0  0  0  0  0  0
   -0.4460   19.6710   -6.4510 O   0  0  0  0  0  0  0  0  0  0  0  0
   -3.0230   21.9490   -8.0870 C   0  0  1  0  0  0  0  0  0  0  0  0
    0.9660   20.9210   -7.6630 O   0  0  0  0  0  0  0  0  0  0  0  0
   -0.8630   18.9220   -8.4660 O   0  0  0  0  0  0  0  0  0  0  0  0
   -4.1780   21.2570   -7.7620 O   0  0  0  0  0  0  0  0  0  0  0  0
   -3.4370   23.4130   -7.8610 C   0  0  1  0  0  0  0  0  0  0  0  0
   -4.2940   23.8500   -8.8670 O   0  0  0  0  0  0  0  0  0  0  0  0
   -1.1650   18.2090   -6.1160 P   0  0  0  0  0  0  0  0  0  0  0  0
   -4.9680   21.9920   -6.8970 C   0  0  2  0  0  0  0  0  0  0  0  0
   -4.2660   23.2620   -6.5950 C   0  0  2  0  0  0  0  0  0  0  0  0
   -5.2500   21.3840   -5.6830 O   0  0  0  0  0  0  0  0  0  0  0  0
   -5.1970   24.3220   -6.5010 O   0  0  0  0  0  0  0  0  0  0  0  0
   -0.2860   17.0090   -5.3310 O   0  0  0  0  0  0  0  0  0  0  0  0
   -1.6070   18.7240   -4.7420 O   0  0  0  0  0  0  0  0  0  0  0  0
   -2.5960   17.8130   -6.7160 O   0  0  0  0  0  0  0  0  0  0  0  0
  1  2  1  0
  2  3  1  0
  4  1  1  1
  2  5  1  0
  2  6  1  0
  4  7  1  0
  4  8  1  0
  8  9  1  6
  3 10  1  0
  7 11  1  0
  8 12  1  0
 11 12  1  0
 11 13  1  1
 12 14  1  6
 10 15  1  0
 10 16  1  0
 10 17  1  0
M  CHG  2   5  -1  16  -1
M  END
>  <%Rank>  (122) 
9.236641

>  <N_hits>  (122) 
2

>  <submitter_name>  (122) 
nan

>  <original SMILES>  (122) 
nan

>  <∆G_unbound>  (122) 
1.818629

>  <∆G_bound>  (122) 
-9.962015

>  <regarded>  (122) 
mArh-6woj_B_0_B_α,6WOJ_0_C_β

>  <ref_pdb>  (122) 
nan

>  <smiles>  (122) 
[O-][PH](O)(O)O[PH]([O-])(O)CC1OC(O)C(O)C1O

>  <submitter_email>  (122) 
nan

>  <disregarded>  (122) 


>  <LE>  (122) 
-0.692979

>  <submitter_institution>  (122) 
nan

>  <ref_mols>  (122) 
mArh-6woj_B_0_B,6WOJ_0_C

>  <N_constrained_atoms>  (122) 
17.0

>  <ref_url>  (122) 
nan

>  <method>  (122) 
nan

>  <comRMSD>  (122) 
0.613848

>  <N_unconstrained_atoms>  (122) 
0.0

>  <∆∆G>  (122) 
-11.780644

>  <runtime>  (122) 
33.923617

>  <generation_date>  (122) 
nan

$$$$
4IQY_0_B_γ-1HJZ_0_A_α
     RDKit          3D

 22 23  0  0  0  0  0  0  0  0999 V2000
   -0.8470   12.1280   -3.3300 O   0  0  0  0  0  0  0  0  0  0  0  0
   -0.8900   13.4450   -3.8340 C   0  0  1  0  0  0  0  0  0  0  0  0
   -1.2040   14.5000   -2.7940 C   0  0  0  0  0  0  0  0  0  0  0  0
    0.4580   13.9740   -4.2610 C   0  0  1  0  0  0  0  0  0  0  0  0
    1.0480   13.2560   -5.3300 O   0  0  0  0  0  0  0  0  0  0  0  0
   -0.7590   15.7280   -3.3900 O   0  0  0  0  0  0  0  0  0  0  0  0
   -0.0060   15.3820   -4.5590 C   0  0  1  0  0  0  0  0  0  0  0  0
    1.1150   16.3580   -4.7430 C   0  0  0  0  0  0  0  0  0  0  0  0
    0.7030   17.8070   -4.5760 C   0  0  0  0  0  0  0  0  0  0  0  0
    0.9710   18.5570   -5.8470 C   0  0  0  0  0  0  0  0  0  0  0  0
   -0.1480   19.3100   -6.2730 O   0  0  0  0  0  0  0  0  0  0  0  0
   -0.0540   19.9900   -7.7030 S   0  0  0  0  0  0  0  0  0  0  0  0
    1.1120   21.1060   -7.7080 O   0  0  0  0  0  0  0  0  0  0  0  0
    0.2300   18.8710   -8.8120 O   0  0  0  0  0  0  0  0  0  0  0  0
   -1.6190   20.7490   -8.1200 C   0  0  0  0  0  0  0  0  0  0  0  0
   -1.9110   22.0380   -7.3740 C   0  0  0  0  0  0  0  0  0  0  0  0
   -2.9980   22.8930   -7.8850 N   0  0  0  0  0  0  0  0  0  0  0  0
   -3.9130   22.2360   -8.8350 C   0  0  0  0  0  0  0  0  0  0  0  0
   -3.7490   23.5230   -6.7830 C   0  0  0  0  0  0  0  0  0  0  0  0
   -4.9140   23.2270   -9.4490 C   0  0  0  0  0  0  0  0  0  0  0  0
   -5.2110   23.7870   -7.1270 C   0  0  0  0  0  0  0  0  0  0  0  0
   -5.4140   24.1700   -8.4940 O   0  0  0  0  0  0  0  0  0  0  0  0
  2  1  1  1
  2  3  1  0
  2  4  1  0
  4  5  1  6
  3  6  1  0
  4  7  1  0
  6  7  1  0
  7  8  1  1
  8  9  1  0
  9 10  1  0
 10 11  1  0
 12 11  1  0
 12 13  1  0
 12 14  1  0
 12 15  1  0
 15 16  1  0
 16 17  1  0
 17 18  1  0
 17 19  1  0
 18 20  1  0
 19 21  1  0
 20 22  1  0
 21 22  1  0
M  END
>  <%Rank>  (123) 
9.312977

>  <N_hits>  (123) 
2

>  <submitter_name>  (123) 
nan

>  <original SMILES>  (123) 
nan

>  <∆G_unbound>  (123) 
0.504971

>  <∆G_bound>  (123) 
-11.977555

>  <regarded>  (123) 
4IQY_0_B_γ,1HJZ_0_A_α

>  <ref_pdb>  (123) 
nan

>  <smiles>  (123) 
OC1COC(CCCOS(O)(O)CCN2CCOCC2)C1O

>  <submitter_email>  (123) 
nan

>  <disregarded>  (123) 


>  <LE>  (123) 
-0.567388

>  <submitter_institution>  (123) 
nan

>  <ref_mols>  (123) 
4IQY_0_B,1HJZ_0_A

>  <N_constrained_atoms>  (123) 
20.0

>  <ref_url>  (123) 
nan

>  <method>  (123) 
nan

>  <comRMSD>  (123) 
0.562708

>  <N_unconstrained_atoms>  (123) 
2.0

>  <∆∆G>  (123) 
-12.482527

>  <runtime>  (123) 
42.438493

>  <generation_date>  (123) 
nan

$$$$
mArh-5cms_P_15_P_β-5CMS_0_M_δ
     RDKit          3D

 21 22  0  0  0  0  0  0  0  0999 V2000
   -1.1160   20.8400   -8.6700 O   0  0  0  0  0  0  0  0  0  0  0  0
   -0.3580   19.8010   -7.7450 P   0  0  0  0  0  0  0  0  0  0  0  0
   -1.3590   19.4950   -6.5470 O   0  0  0  0  0  0  0  0  0  0  0  0
    0.9900   20.2840   -7.3690 O   0  0  0  0  0  0  0  0  0  0  0  0
   -0.3060   18.5340   -8.7010 O   0  0  0  0  0  0  0  0  0  0  0  0
   -1.7110   18.0270   -6.0940 P   0  0  2  0  0  0  0  0  0  0  0  0
   -0.3200   17.2830   -6.2810 O   0  0  0  0  0  0  0  0  0  0  0  0
   -2.8110   17.4050   -6.8640 O   0  0  0  0  0  0  0  0  0  0  0  0
   -1.8500   17.9600   -4.5100 O   0  0  0  0  0  0  0  0  0  0  0  0
   -1.5320   16.6970   -3.9370 C   0  0  0  0  0  0  0  0  0  0  0  0
   -2.7480   15.7610   -3.9110 C   0  0  0  0  0  0  0  0  0  0  0  0
   -2.9140   14.7980   -2.7290 C   0  0  1  0  0  0  0  0  0  0  0  0
   -1.6230   14.2650   -2.2710 N   0  0  0  0  0  0  0  0  0  0  0  0
   -3.6200   15.3350   -1.5480 N   0  0  0  0  0  0  0  0  0  0  0  0
   -1.4650   14.8940   -0.9900 C   0  0  1  0  0  0  0  0  0  0  0  0
   -2.8590   14.7540   -0.4350 C   0  0  1  0  0  0  0  0  0  0  0  0
   -0.4760   14.2130   -0.2100 N   0  0  0  0  0  0  0  0  0  0  0  0
   -2.8020   15.4880    0.8900 C   0  0  1  0  0  0  0  0  0  0  0  0
   -4.0490   15.4910    1.6470 N   0  0  0  0  0  0  0  0  0  0  0  0
   -0.4530   14.8210    1.1060 C   0  0  0  0  0  0  0  0  0  0  0  0
   -1.7850   14.9050    1.7140 N   0  0  0  0  0  0  0  0  0  0  0  0
  1  2  1  0
  2  3  1  0
  2  4  2  0
  2  5  1  0
  3  6  1  0
  6  7  1  1
  6  8  2  0
  6  9  1  0
  9 10  1  0
 10 11  1  0
 12 11  1  6
 12 13  1  0
 12 14  1  0
 15 13  1  6
 16 14  1  6
 15 16  1  0
 15 17  1  0
 16 18  1  0
 18 19  1  1
 17 20  1  0
 18 21  1  0
 20 21  1  0
M  END
>  <%Rank>  (124) 
9.389313

>  <N_hits>  (124) 
2

>  <submitter_name>  (124) 
nan

>  <original SMILES>  (124) 
nan

>  <∆G_unbound>  (124) 
4.831508

>  <∆G_bound>  (124) 
-9.55102

>  <regarded>  (124) 
mArh-5cms_P_15_P_β,5CMS_0_M_δ

>  <ref_pdb>  (124) 
nan

>  <smiles>  (124) 
NC1NCNC2NC(CCOP(=O)(O)OP(=O)(O)O)NC12

>  <submitter_email>  (124) 
nan

>  <disregarded>  (124) 


>  <LE>  (124) 
-0.684882

>  <submitter_institution>  (124) 
nan

>  <ref_mols>  (124) 
mArh-5cms_P_15_P,5CMS_0_M

>  <N_constrained_atoms>  (124) 
19.0

>  <ref_url>  (124) 
nan

>  <method>  (124) 
nan

>  <comRMSD>  (124) 
0.600256

>  <N_unconstrained_atoms>  (124) 
2.0

>  <∆∆G>  (124) 
-14.382529

>  <runtime>  (124) 
32.037989

>  <generation_date>  (124) 
nan

$$$$
mArh-5cb5_Q_0_Q_β-6MEA_0_A_α
     RDKit          3D

 17 17  0  0  0  0  0  0  0  0999 V2000
   -2.0010   21.2840   -8.6810 O   0  0  0  0  0  0  0  0  0  0  0  0
   -0.9130   20.3740   -7.8770 P   0  0  2  0  0  0  0  0  0  0  0  0
   -1.5610   19.9030   -6.5120 O   0  0  0  0  0  0  0  0  0  0  0  0
   -3.3470   21.6970   -8.3150 C   0  0  1  0  0  0  0  0  0  0  0  0
    0.4190   21.0270   -7.6740 O   0  0  0  0  0  0  0  0  0  0  0  0
   -0.7070   18.9970   -8.6780 O   0  0  0  0  0  0  0  0  0  0  0  0
   -3.8860   21.0400   -7.1660 O   0  0  0  0  0  0  0  0  0  0  0  0
   -3.5860   23.2250   -8.0520 C   0  0  1  0  0  0  0  0  0  0  0  0
   -1.7540   18.3650   -6.1790 P   0  0  0  0  0  0  0  0  0  0  0  0
   -4.3450   23.8570   -9.1020 O   0  0  0  0  0  0  0  0  0  0  0  0
   -4.9980   21.8570   -6.8150 C   0  0  2  0  0  0  0  0  0  0  0  0
   -4.3660   23.2300   -6.7200 C   0  0  2  0  0  0  0  0  0  0  0  0
   -0.3290   17.6800   -6.2870 O   0  0  0  0  0  0  0  0  0  0  0  0
   -2.8310   17.6390   -6.8780 O   0  0  0  0  0  0  0  0  0  0  0  0
   -1.8930   18.3990   -4.6020 O   0  0  0  0  0  0  0  0  0  0  0  0
   -5.5250   21.4700   -5.5580 O   0  0  0  0  0  0  0  0  0  0  0  0
   -5.4000   24.2270   -6.6380 O   0  0  0  0  0  0  0  0  0  0  0  0
  1  2  1  0
  2  3  1  0
  4  1  1  1
  2  5  2  0
  2  6  1  6
  4  7  1  0
  4  8  1  0
  3  9  1  0
  8 10  1  6
  7 11  1  0
  8 12  1  0
 11 12  1  0
  9 13  1  0
  9 14  2  0
  9 15  1  0
 11 16  1  1
 12 17  1  6
M  END
>  <%Rank>  (125) 
9.465649

>  <N_hits>  (125) 
2

>  <submitter_name>  (125) 
nan

>  <original SMILES>  (125) 
nan

>  <∆G_unbound>  (125) 
1.974322

>  <∆G_bound>  (125) 
-11.551991

>  <regarded>  (125) 
mArh-5cb5_Q_0_Q_β,6MEA_0_A_α

>  <ref_pdb>  (125) 
nan

>  <smiles>  (125) 
O=P(O)(O)OP(=O)(O)OC1OC(O)C(O)C1O

>  <submitter_email>  (125) 
nan

>  <disregarded>  (125) 


>  <LE>  (125) 
-0.795665

>  <submitter_institution>  (125) 
nan

>  <ref_mols>  (125) 
mArh-5cb5_Q_0_Q,6MEA_0_A

>  <N_constrained_atoms>  (125) 
17.0

>  <ref_url>  (125) 
nan

>  <method>  (125) 
nan

>  <comRMSD>  (125) 
0.667794

>  <N_unconstrained_atoms>  (125) 
0.0

>  <∆∆G>  (125) 
-13.526313

>  <runtime>  (125) 
34.525262

>  <generation_date>  (125) 
nan

$$$$
mArh-5cb5_G_0_G_β-mArh-3vfq_B_0_A_γ
     RDKit          3D

 18 18  0  0  0  0  0  0  0  0999 V2000
   -1.6120   20.4830   -8.3300 O   0  0  0  0  0  0  0  0  0  0  0  0
   -0.2830   19.7870   -7.8070 P   0  0  0  0  0  0  0  0  0  0  0  0
   -0.5160   19.1000   -6.4090 O   0  0  0  0  0  0  0  0  0  0  0  0
    0.8250   20.7730   -7.8030 O   0  0  0  0  0  0  0  0  0  0  0  0
   -0.0760   18.6130   -8.8520 O   0  0  0  0  0  0  0  0  0  0  0  0
   -1.6960   18.1950   -5.8860 P   0  0  2  0  0  0  0  0  0  0  0  0
   -0.9870   17.1350   -4.8860 O   0  0  0  0  0  0  0  0  0  0  0  0
   -2.6740   17.6670   -6.8740 O   0  0  0  0  0  0  0  0  0  0  0  0
   -2.3220   19.2450   -4.8580 O   0  0  0  0  0  0  0  0  0  0  0  0
   -1.4640   15.8020   -4.6230 C   0  0  0  0  0  0  0  0  0  0  0  0
   -2.9850   15.7630   -4.5470 C   0  0  0  0  0  0  0  0  0  0  0  0
   -3.6590   14.9280   -3.4240 C   0  0  2  0  0  0  0  0  0  0  0  0
   -3.0230   14.9360   -2.1290 O   0  0  0  0  0  0  0  0  0  0  0  0
   -3.9000   13.4370   -3.6870 C   0  0  1  0  0  0  0  0  0  0  0  0
   -2.7000   12.6680   -3.8130 O   0  0  0  0  0  0  0  0  0  0  0  0
   -3.7020   13.8840   -1.3840 C   0  0  0  0  0  0  0  0  0  0  0  0
   -4.5830   13.1030   -2.3760 C   0  0  2  0  0  0  0  0  0  0  0  0
   -4.5300   11.7000   -2.1100 O   0  0  0  0  0  0  0  0  0  0  0  0
  1  2  1  0
  2  3  1  0
  2  4  2  0
  2  5  1  0
  3  6  1  0
  6  7  1  0
  6  8  2  0
  6  9  1  1
  7 10  1  0
 10 11  1  0
 12 11  1  6
 12 13  1  0
 12 14  1  0
 14 15  1  1
 13 16  1  0
 14 17  1  0
 16 17  1  0
 17 18  1  1
M  END
>  <%Rank>  (126) 
9.541985

>  <N_hits>  (126) 
2

>  <submitter_name>  (126) 
nan

>  <original SMILES>  (126) 
nan

>  <∆G_unbound>  (126) 
2.208268

>  <∆G_bound>  (126) 
-9.631714

>  <regarded>  (126) 
mArh-5cb5_G_0_G_β,mArh-3vfq_B_0_A_γ

>  <ref_pdb>  (126) 
nan

>  <smiles>  (126) 
O=P(O)(O)OP(=O)(O)OCCC1OCC(O)C1O

>  <submitter_email>  (126) 
nan

>  <disregarded>  (126) 


>  <LE>  (126) 
-0.657777

>  <submitter_institution>  (126) 
nan

>  <ref_mols>  (126) 
mArh-5cb5_G_0_G,mArh-3vfq_B_0_A

>  <N_constrained_atoms>  (126) 
17.0

>  <ref_url>  (126) 
nan

>  <method>  (126) 
nan

>  <comRMSD>  (126) 
0.569738

>  <N_unconstrained_atoms>  (126) 
1.0

>  <∆∆G>  (126) 
-11.839982

>  <runtime>  (126) 
27.876559

>  <generation_date>  (126) 
nan

$$$$
mArh-6woj_A_0_A_γ-5CB5_0_L_β
     RDKit          3D

 18 18  0  0  0  0  0  0  0  0999 V2000
   -0.6100   12.4380   -4.5440 O   0  0  0  0  0  0  0  0  0  0  0  0
   -0.3720   13.8130   -4.4430 C   0  0  1  0  0  0  0  0  0  0  0  0
   -0.0340   14.0600   -2.9700 C   0  0  0  0  0  0  0  0  0  0  0  0
    0.9690   14.1920   -5.0540 C   0  0  2  0  0  0  0  0  0  0  0  0
    1.8600   13.1730   -4.8440 O   0  0  0  0  0  0  0  0  0  0  0  0
    0.5960   15.3170   -3.0130 O   0  0  0  0  0  0  0  0  0  0  0  0
    1.3380   15.3670   -4.2340 C   0  0  2  0  0  0  0  0  0  0  0  0
    0.9500   16.6520   -4.8170 C   0  0  0  0  0  0  0  0  0  0  0  0
   -0.5530   16.6680   -5.1580 C   0  0  0  0  0  0  0  0  0  0  0  0
   -0.6680   17.5430   -6.2360 O   0  0  0  0  0  0  0  0  0  0  0  0
   -1.6490   18.6790   -6.1410 P   0  0  0  0  0  0  0  0  0  0  0  0
   -0.5500   19.8040   -6.6450 O   0  0  0  0  0  0  0  0  0  0  0  0
   -2.6940   17.9560   -7.0990 O   0  0  0  0  0  0  0  0  0  0  0  0
   -1.7880   18.4810   -4.5200 O   0  0  0  0  0  0  0  0  0  0  0  0
   -0.2200   20.0810   -8.0820 P   0  0  0  0  0  0  0  0  0  0  0  0
   -1.7250   20.8190   -8.2960 O   0  0  0  0  0  0  0  0  0  0  0  0
    1.0600   21.0110   -7.6210 O   0  0  0  0  0  0  0  0  0  0  0  0
   -0.0400   18.6000   -8.6660 O   0  0  0  0  0  0  0  0  0  0  0  0
  2  1  1  1
  2  3  1  0
  2  4  1  0
  4  5  1  1
  3  6  1  0
  4  7  1  0
  6  7  1  0
  7  8  1  6
  8  9  1  0
  9 10  1  0
 10 11  1  0
 11 12  1  0
 11 13  1  0
 11 14  1  0
 12 15  1  0
 15 16  1  0
 15 17  1  0
 15 18  1  0
M  CHG  2  13  -1  17  -1
M  END
>  <%Rank>  (127) 
9.618321

>  <N_hits>  (127) 
2

>  <submitter_name>  (127) 
nan

>  <original SMILES>  (127) 
nan

>  <∆G_unbound>  (127) 
0.874658

>  <∆G_bound>  (127) 
-8.879677

>  <regarded>  (127) 
mArh-6woj_A_0_A_γ,5CB5_0_L_β

>  <ref_pdb>  (127) 
nan

>  <smiles>  (127) 
[O-][PH](O)(O)O[PH]([O-])(O)OCCC1OCC(O)C1O

>  <submitter_email>  (127) 
nan

>  <disregarded>  (127) 


>  <LE>  (127) 
-0.541908

>  <submitter_institution>  (127) 
nan

>  <ref_mols>  (127) 
mArh-6woj_A_0_A,5CB5_0_L

>  <N_constrained_atoms>  (127) 
17.0

>  <ref_url>  (127) 
nan

>  <method>  (127) 
nan

>  <comRMSD>  (127) 
0.512942

>  <N_unconstrained_atoms>  (127) 
1.0

>  <∆∆G>  (127) 
-9.754335

>  <runtime>  (127) 
27.915303

>  <generation_date>  (127) 
nan

$$$$
5CMS_0_L_γ-4GVW_0_A_α
     RDKit          3D

 21 22  0  0  0  0  0  0  0  0999 V2000
    0.4570   12.4570   -4.0480 O   0  0  0  0  0  0  0  0  0  0  0  0
   -0.2000   13.7270   -3.9760 C   0  0  1  0  0  0  0  0  0  0  0  0
    0.4860   14.6270   -2.9470 C   0  0  0  0  0  0  0  0  0  0  0  0
   -0.0190   14.4850   -5.2790 C   0  0  2  0  0  0  0  0  0  0  0  0
    1.1870   14.0490   -5.9100 O   0  0  0  0  0  0  0  0  0  0  0  0
    0.6830   15.9250   -3.5420 O   0  0  0  0  0  0  0  0  0  0  0  0
   -0.0150   15.9560   -4.7930 C   0  0  1  0  0  0  0  0  0  0  0  0
    0.5280   17.0080   -5.7760 C   0  0  0  0  0  0  0  0  0  0  0  0
    0.5530   18.4400   -5.2960 C   0  0  0  0  0  0  0  0  0  0  0  0
   -0.4340   19.1890   -6.0290 O   0  0  0  0  0  0  0  0  0  0  0  0
   -0.1430   19.8460   -7.4890 S   0  0  0  0  0  0  0  0  0  0  0  0
    1.0120   20.9790   -7.4840 O   0  0  0  0  0  0  0  0  0  0  0  0
    0.1490   18.7490   -8.6260 O   0  0  0  0  0  0  0  0  0  0  0  0
   -1.7000   20.5670   -7.9850 C   0  0  0  0  0  0  0  0  0  0  0  0
   -2.1330   21.7790   -7.2030 C   0  0  0  0  0  0  0  0  0  0  0  0
   -3.5670   22.1270   -7.3500 N   0  0  0  0  0  0  0  0  0  0  0  0
   -3.8620   23.3100   -6.5290 C   0  0  0  0  0  0  0  0  0  0  0  0
   -3.9460   22.4620   -8.7400 C   0  0  0  0  0  0  0  0  0  0  0  0
   -5.2990   23.7350   -6.6790 C   0  0  0  0  0  0  0  0  0  0  0  0
   -5.4260   22.8440   -8.8560 C   0  0  0  0  0  0  0  0  0  0  0  0
   -5.7210   23.9630   -8.0240 O   0  0  0  0  0  0  0  0  0  0  0  0
  2  1  1  6
  2  3  1  0
  2  4  1  0
  4  5  1  1
  3  6  1  0
  4  7  1  0
  6  7  1  0
  7  8  1  6
  8  9  1  0
  9 10  1  0
 11 10  1  0
 11 12  1  0
 11 13  1  0
 11 14  1  0
 14 15  1  0
 15 16  1  0
 16 17  1  0
 16 18  1  0
 17 19  1  0
 18 20  1  0
 19 21  1  0
 20 21  1  0
M  END
>  <%Rank>  (128) 
9.694656

>  <N_hits>  (128) 
2

>  <submitter_name>  (128) 
nan

>  <original SMILES>  (128) 
nan

>  <∆G_unbound>  (128) 
0.911523

>  <∆G_bound>  (128) 
-10.58778

>  <regarded>  (128) 
5CMS_0_L_γ,4GVW_0_A_α

>  <ref_pdb>  (128) 
nan

>  <smiles>  (128) 
OC1COC(CCOS(O)(O)CCN2CCOCC2)C1O

>  <submitter_email>  (128) 
nan

>  <disregarded>  (128) 


>  <LE>  (128) 
-0.547586

>  <submitter_institution>  (128) 
nan

>  <ref_mols>  (128) 
5CMS_0_L,4GVW_0_A

>  <N_constrained_atoms>  (128) 
20.0

>  <ref_url>  (128) 
nan

>  <method>  (128) 
nan

>  <comRMSD>  (128) 
0.581648

>  <N_unconstrained_atoms>  (128) 
1.0

>  <∆∆G>  (128) 
-11.499303

>  <runtime>  (128) 
38.642589

>  <generation_date>  (128) 
nan

$$$$
mArh-x0722_0_A_α-5CB5_0_I_β
     RDKit          3D

 24 24  0  0  0  0  0  0  0  0999 V2000
   -4.8000   15.3110    2.3340 C   0  0  0  0  0  0  0  0  0  0  0  0
   -3.6350   15.0680    1.4510 C   0  0  0  0  0  0  0  0  0  0  0  0
   -2.4600   14.7430    1.8940 N   0  0  0  0  0  0  0  0  0  0  0  0
   -3.5270   15.1240    0.0340 C   0  0  0  0  0  0  0  0  0  0  0  0
   -4.6910   15.4790   -0.7830 C   0  0  0  0  0  0  0  0  0  0  0  0
   -2.2510   14.8070   -0.2980 C   0  0  0  0  0  0  0  0  0  0  0  0
   -1.6230   14.5850    0.9180 N   0  0  0  0  0  0  0  0  0  0  0  0
   -0.2470   14.2280    1.1540 C   0  0  0  0  0  0  0  0  0  0  0  0
   -1.4460   14.6510   -1.5120 C   0  0  0  0  0  0  0  0  0  0  0  0
   -5.8840   14.6110   -0.5920 C   0  0  0  0  0  0  0  0  0  0  0  0
   -7.0040   15.1180   -0.8700 O   0  0  0  0  0  0  0  0  0  0  0  0
   -5.8220   13.2950   -0.1280 N   0  0  0  0  0  0  0  0  0  0  0  0
   -0.7710   15.8370   -2.0640 C   0  0  0  0  0  0  0  0  0  0  0  0
   -1.4600   16.3250   -3.2830 C   0  0  0  0  0  0  0  0  0  0  0  0
   -0.8560   17.4680   -3.9980 C   0  0  0  0  0  0  0  0  0  0  0  0
   -1.6670   18.3720   -4.5690 O   0  0  0  0  0  0  0  0  0  0  0  0
   -1.4970   18.0640   -6.1730 P   0  0  0  0  0  0  0  0  0  0  0  0
   -1.2930   19.5420   -6.5280 O   0  0  0  0  0  0  0  0  0  0  0  0
   -0.0340   17.6140   -6.6610 O   0  0  0  0  0  0  0  0  0  0  0  0
   -2.7830   17.9800   -7.1400 O   0  0  0  0  0  0  0  0  0  0  0  0
   -0.3320   19.9900   -7.7530 P   0  0  0  0  0  0  0  0  0  0  0  0
   -1.4620   20.4980   -8.6690 O   0  0  0  0  0  0  0  0  0  0  0  0
    0.9210   19.4990   -7.0400 O   0  0  0  0  0  0  0  0  0  0  0  0
    0.0490   18.7960   -8.8740 O   0  0  0  0  0  0  0  0  0  0  0  0
  1  2  1  0
  2  3  2  0
  2  4  1  0
  4  5  1  0
  4  6  2  0
  3  7  1  0
  6  7  1  0
  7  8  1  0
  6  9  1  0
  5 10  1  0
 10 11  2  0
 10 12  1  0
  9 13  1  0
 13 14  1  0
 14 15  1  0
 15 16  1  0
 16 17  1  0
 17 18  1  0
 17 19  1  0
 17 20  1  0
 18 21  1  0
 21 22  1  0
 21 23  1  0
 21 24  1  0
M  CHG  2  20  -1  23  -1
M  END
>  <%Rank>  (129) 
9.770992

>  <N_hits>  (129) 
2

>  <submitter_name>  (129) 
nan

>  <original SMILES>  (129) 
nan

>  <∆G_unbound>  (129) 
1.312248

>  <∆G_bound>  (129) 
-12.748344

>  <regarded>  (129) 
mArh-x0722_0_A_α,5CB5_0_I_β

>  <ref_pdb>  (129) 
nan

>  <smiles>  (129) 
Cc1nn(C)c(CCCCO[PH]([O-])(O)O[PH]([O-])(O)O)c1CC(N)=O

>  <submitter_email>  (129) 
nan

>  <disregarded>  (129) 


>  <LE>  (129) 
-0.585858

>  <submitter_institution>  (129) 
nan

>  <ref_mols>  (129) 
mArh-x0722_0_A,5CB5_0_I

>  <N_constrained_atoms>  (129) 
21.0

>  <ref_url>  (129) 
nan

>  <method>  (129) 
nan

>  <comRMSD>  (129) 
0.575897

>  <N_unconstrained_atoms>  (129) 
3.0

>  <∆∆G>  (129) 
-14.060593

>  <runtime>  (129) 
33.154078

>  <generation_date>  (129) 
nan

$$$$
5CB5_0_H_α-6WOJ_0_C_γ
     RDKit          3D

 22 23  0  0  0  0  0  0  0  0999 V2000
   -2.2400   21.7650   -8.2470 C   0  0  0  0  0  0  0  0  0  0  0  0
   -3.5660   22.0830   -8.9410 C   0  0  1  0  0  0  0  0  0  0  0  0
   -4.5640   21.1140   -8.5930 O   0  0  0  0  0  0  0  0  0  0  0  0
   -4.1140   23.4480   -8.5620 C   0  0  1  0  0  0  0  0  0  0  0  0
   -4.5620   24.1160   -9.7490 O   0  0  0  0  0  0  0  0  0  0  0  0
   -5.3860   21.6330   -7.5660 C   0  0  2  0  0  0  0  0  0  0  0  0
   -5.3570   23.1700   -7.7240 C   0  0  1  0  0  0  0  0  0  0  0  0
   -4.8860   21.1680   -6.3250 O   0  0  0  0  0  0  0  0  0  0  0  0
   -5.4150   23.9310   -6.5110 O   0  0  0  0  0  0  0  0  0  0  0  0
   -3.7790   20.2970   -6.6290 C   0  0  0  0  0  0  0  0  0  0  0  0
   -2.5760   20.2850   -5.6820 C   0  0  0  0  0  0  0  0  0  0  0  0
   -1.5640   19.1830   -6.0530 C   0  0  0  0  0  0  0  0  0  0  0  0
   -1.1420   18.3650   -4.8350 C   0  0  0  0  0  0  0  0  0  0  0  0
    0.3630   18.0780   -4.7030 C   0  0  0  0  0  0  0  0  0  0  0  0
    0.7840   16.7930   -5.3880 C   0  0  0  0  0  0  0  0  0  0  0  0
    1.1450   15.6200   -4.4640 C   0  0  1  0  0  0  0  0  0  0  0  0
    0.3790   15.7190   -3.2310 O   0  0  0  0  0  0  0  0  0  0  0  0
    0.8120   14.2440   -5.0570 C   0  0  1  0  0  0  0  0  0  0  0  0
    1.6970   13.1880   -4.7430 O   0  0  0  0  0  0  0  0  0  0  0  0
   -0.4260   14.5370   -3.1080 C   0  0  0  0  0  0  0  0  0  0  0  0
   -0.5810   13.9920   -4.5120 C   0  0  2  0  0  0  0  0  0  0  0  0
   -0.9180   12.6130   -4.5670 O   0  0  0  0  0  0  0  0  0  0  0  0
  2  1  1  1
  2  3  1  0
  2  4  1  0
  4  5  1  6
  3  6  1  0
  4  7  1  0
  6  7  1  0
  6  8  1  1
  7  9  1  1
  8 10  1  0
 10 11  1  0
 11 12  1  0
 12 13  1  0
 13 14  1  0
 14 15  1  0
 16 15  1  6
 16 17  1  0
 16 18  1  0
 18 19  1  1
 17 20  1  0
 18 21  1  0
 20 21  1  0
 21 22  1  1
M  END
>  <%Rank>  (130) 
9.847328

>  <N_hits>  (130) 
2

>  <submitter_name>  (130) 
nan

>  <original SMILES>  (130) 
nan

>  <∆G_unbound>  (130) 
0.187336

>  <∆G_bound>  (130) 
-11.686008

>  <regarded>  (130) 
5CB5_0_H_α,6WOJ_0_C_γ

>  <ref_pdb>  (130) 
nan

>  <smiles>  (130) 
CC1OC(OCCCCCCC2OCC(O)C2O)C(O)C1O

>  <submitter_email>  (130) 
nan

>  <disregarded>  (130) 


>  <LE>  (130) 
-0.539697

>  <submitter_institution>  (130) 
nan

>  <ref_mols>  (130) 
5CB5_0_H,6WOJ_0_C

>  <N_constrained_atoms>  (130) 
17.0

>  <ref_url>  (130) 
nan

>  <method>  (130) 
nan

>  <comRMSD>  (130) 
0.399717

>  <N_unconstrained_atoms>  (130) 
5.0

>  <∆∆G>  (130) 
-11.873343

>  <runtime>  (130) 
40.842217

>  <generation_date>  (130) 
nan

$$$$
6MEA_0_B_γ-6WOJ_0_C_β
     RDKit          3D

 16 16  0  0  0  0  0  0  0  0999 V2000
   -1.8200   13.0050   -4.1700 O   0  0  0  0  0  0  0  0  0  0  0  0
   -0.5400   13.5090   -3.9560 C   0  0  2  0  0  0  0  0  0  0  0  0
   -0.4550   14.4560   -2.7590 C   0  0  0  0  0  0  0  0  0  0  0  0
   -0.0760   14.3530   -5.1100 C   0  0  2  0  0  0  0  0  0  0  0  0
    1.2830   14.0910   -5.2590 O   0  0  0  0  0  0  0  0  0  0  0  0
    0.1480   15.6200   -3.2710 O   0  0  0  0  0  0  0  0  0  0  0  0
   -0.3800   15.6890   -4.5450 C   0  0  1  0  0  0  0  0  0  0  0  0
    0.0360   16.9490   -5.3140 C   0  0  0  0  0  0  0  0  0  0  0  0
   -1.3220   18.0070   -5.6580 P   0  0  0  0  0  0  0  0  0  0  0  0
   -0.5780   19.2750   -6.0870 O   0  0  0  0  0  0  0  0  0  0  0  0
   -1.8280   19.0200   -4.4210 O   0  0  0  0  0  0  0  0  0  0  0  0
   -2.2700   17.9760   -6.9590 O   0  0  0  0  0  0  0  0  0  0  0  0
    0.0370   19.6570   -7.5090 P   0  0  0  0  0  0  0  0  0  0  0  0
   -1.2410   20.3520   -8.0050 O   0  0  0  0  0  0  0  0  0  0  0  0
    0.8460   21.1130   -7.7260 O   0  0  0  0  0  0  0  0  0  0  0  0
    0.0560   18.5410   -8.7130 O   0  0  0  0  0  0  0  0  0  0  0  0
  2  1  1  6
  2  3  1  0
  2  4  1  0
  4  5  1  1
  3  6  1  0
  4  7  1  0
  6  7  1  0
  7  8  1  6
  8  9  1  0
  9 10  1  0
  9 11  1  0
  9 12  1  0
 10 13  1  0
 13 14  1  0
 13 15  1  0
 13 16  1  0
M  CHG  2  11  -1  15  -1
M  END
>  <%Rank>  (131) 
9.923664

>  <N_hits>  (131) 
2

>  <submitter_name>  (131) 
nan

>  <original SMILES>  (131) 
nan

>  <∆G_unbound>  (131) 
0.683631

>  <∆G_bound>  (131) 
-7.666175

>  <regarded>  (131) 
6MEA_0_B_γ,6WOJ_0_C_β

>  <ref_pdb>  (131) 
nan

>  <smiles>  (131) 
[O-][PH](O)(O)O[PH]([O-])(O)CC1OCC(O)C1O

>  <submitter_email>  (131) 
nan

>  <disregarded>  (131) 


>  <LE>  (131) 
-0.521863

>  <submitter_institution>  (131) 
nan

>  <ref_mols>  (131) 
6MEA_0_B,6WOJ_0_C

>  <N_constrained_atoms>  (131) 
16.0

>  <ref_url>  (131) 
nan

>  <method>  (131) 
nan

>  <comRMSD>  (131) 
0.516729

>  <N_unconstrained_atoms>  (131) 
0.0

>  <∆∆G>  (131) 
-8.349807

>  <runtime>  (131) 
28.226588

>  <generation_date>  (131) 
nan

$$$$
mArh-x0626_0_A_α-5CMS_0_E_γ
     RDKit          3D

 21 22  0  0  0  0  0  0  0  0999 V2000
   -4.8870   14.9170    1.4850 N   0  0  0  0  0  0  0  0  0  0  0  0
   -6.0710   14.7340    0.8330 C   0  0  0  0  0  0  0  0  0  0  0  0
   -6.1090   14.8660   -0.3960 O   0  0  0  0  0  0  0  0  0  0  0  0
   -3.6570   14.8550    0.9160 C   0  0  0  0  0  0  0  0  0  0  0  0
   -7.3110   14.3800    1.6320 C   0  0  0  0  0  0  0  0  0  0  0  0
   -2.4630   14.7000    1.4700 N   0  0  0  0  0  0  0  0  0  0  0  0
   -3.7220   15.0190   -0.7790 S   0  0  0  0  0  0  0  0  0  0  0  0
   -8.5900   14.6640    0.8580 C   0  0  0  0  0  0  0  0  0  0  0  0
   -2.0320   14.8500   -0.8200 C   0  0  0  0  0  0  0  0  0  0  0  0
   -1.5250   14.6920    0.4550 C   0  0  0  0  0  0  0  0  0  0  0  0
   -0.0800   14.5300    0.7330 C   0  0  0  0  0  0  0  0  0  0  0  0
    0.6280   14.4630   -0.6250 C   0  0  0  0  0  0  0  0  0  0  0  0
   -0.0030   13.4130   -1.5360 C   0  0  0  0  0  0  0  0  0  0  0  0
    0.1640   13.8200   -3.0030 C   0  0  2  0  0  0  0  0  0  0  0  0
    0.1100   15.2510   -3.2010 O   0  0  0  0  0  0  0  0  0  0  0  0
   -0.8800   13.3260   -3.9890 C   0  0  2  0  0  0  0  0  0  0  0  0
   -0.8390   11.9040   -4.1520 O   0  0  0  0  0  0  0  0  0  0  0  0
   -0.2210   15.4430   -4.6000 C   0  0  2  0  0  0  0  0  0  0  0  0
   -0.3060   14.0210   -5.1980 C   0  0  1  0  0  0  0  0  0  0  0  0
    0.7960   16.3750   -5.2300 C   0  0  0  0  0  0  0  0  0  0  0  0
    0.9880   13.4740   -5.4860 O   0  0  0  0  0  0  0  0  0  0  0  0
  1  2  1  0
  2  3  2  0
  1  4  1  0
  2  5  1  0
  4  6  2  0
  4  7  1  0
  5  8  1  0
  7  9  1  0
  6 10  1  0
  9 10  2  0
 10 11  1  0
 11 12  1  0
 12 13  1  0
 14 13  1  1
 14 15  1  0
 14 16  1  0
 16 17  1  6
 15 18  1  0
 16 19  1  0
 18 19  1  0
 18 20  1  6
 19 21  1  1
M  END
>  <%Rank>  (132) 
10.0

>  <N_hits>  (132) 
2

>  <submitter_name>  (132) 
nan

>  <original SMILES>  (132) 
nan

>  <∆G_unbound>  (132) 
0.11782

>  <∆G_bound>  (132) 
-7.582728

>  <regarded>  (132) 
mArh-x0626_0_A_α,5CMS_0_E_γ

>  <ref_pdb>  (132) 
nan

>  <smiles>  (132) 
CCC(=O)Nc1nc(CCCC2OC(C)C(O)C2O)cs1

>  <submitter_email>  (132) 
nan

>  <disregarded>  (132) 


>  <LE>  (132) 
-0.366693

>  <submitter_institution>  (132) 
nan

>  <ref_mols>  (132) 
mArh-x0626_0_A,5CMS_0_E

>  <N_constrained_atoms>  (132) 
19.0

>  <ref_url>  (132) 
nan

>  <method>  (132) 
nan

>  <comRMSD>  (132) 
0.450913

>  <N_unconstrained_atoms>  (132) 
2.0

>  <∆∆G>  (132) 
-7.700548

>  <runtime>  (132) 
51.67967

>  <generation_date>  (132) 
nan

$$$$
6WOJ_0_D_γ-5CB5_0_B_β
     RDKit          3D

 18 18  0  0  0  0  0  0  0  0999 V2000
   -0.8590   12.5620   -4.5740 O   0  0  0  0  0  0  0  0  0  0  0  0
   -0.5590   13.9230   -4.4320 C   0  0  1  0  0  0  0  0  0  0  0  0
   -0.2130   14.1180   -2.9530 C   0  0  0  0  0  0  0  0  0  0  0  0
    0.7990   14.2610   -5.0300 C   0  0  2  0  0  0  0  0  0  0  0  0
    1.6580   13.2160   -4.8230 O   0  0  0  0  0  0  0  0  0  0  0  0
    0.4790   15.3470   -2.9630 O   0  0  0  0  0  0  0  0  0  0  0  0
    1.1990   15.4160   -4.1990 C   0  0  2  0  0  0  0  0  0  0  0  0
    0.8150   16.7120   -4.7600 C   0  0  0  0  0  0  0  0  0  0  0  0
   -0.6860   16.7240   -5.1270 C   0  0  0  0  0  0  0  0  0  0  0  0
   -0.8120   17.6060   -6.1960 O   0  0  0  0  0  0  0  0  0  0  0  0
   -1.8380   18.7000   -6.1130 P   0  0  0  0  0  0  0  0  0  0  0  0
   -0.8040   19.8610   -6.6580 O   0  0  0  0  0  0  0  0  0  0  0  0
   -2.8660   17.8950   -7.0330 O   0  0  0  0  0  0  0  0  0  0  0  0
   -1.9140   18.5530   -4.4850 O   0  0  0  0  0  0  0  0  0  0  0  0
   -0.4230   20.0160   -8.0930 P   0  0  0  0  0  0  0  0  0  0  0  0
   -1.8960   20.7900   -8.3700 O   0  0  0  0  0  0  0  0  0  0  0  0
    0.8620   20.9260   -7.6730 O   0  0  0  0  0  0  0  0  0  0  0  0
   -0.2740   18.4940   -8.5630 O   0  0  0  0  0  0  0  0  0  0  0  0
  2  1  1  1
  2  3  1  0
  2  4  1  0
  4  5  1  1
  3  6  1  0
  4  7  1  0
  6  7  1  0
  7  8  1  6
  8  9  1  0
  9 10  1  0
 10 11  1  0
 11 12  1  0
 11 13  1  0
 11 14  1  0
 12 15  1  0
 15 16  1  0
 15 17  1  0
 15 18  1  0
M  CHG  2  13  -1  17  -1
M  END
>  <%Rank>  (133) 
10.076336

>  <N_hits>  (133) 
2

>  <submitter_name>  (133) 
nan

>  <original SMILES>  (133) 
nan

>  <∆G_unbound>  (133) 
0.874658

>  <∆G_bound>  (133) 
-8.555755

>  <regarded>  (133) 
6WOJ_0_D_γ,5CB5_0_B_β

>  <ref_pdb>  (133) 
nan

>  <smiles>  (133) 
[O-][PH](O)(O)O[PH]([O-])(O)OCCC1OCC(O)C1O

>  <submitter_email>  (133) 
nan

>  <disregarded>  (133) 


>  <LE>  (133) 
-0.523912

>  <submitter_institution>  (133) 
nan

>  <ref_mols>  (133) 
6WOJ_0_D,5CB5_0_B

>  <N_constrained_atoms>  (133) 
17.0

>  <ref_url>  (133) 
nan

>  <method>  (133) 
nan

>  <comRMSD>  (133) 
0.511464

>  <N_unconstrained_atoms>  (133) 
1.0

>  <∆∆G>  (133) 
-9.430413

>  <runtime>  (133) 
26.669644

>  <generation_date>  (133) 
nan

$$$$
5CMS_0_I_γ-mArh-x0895_1_A_α
     RDKit          3D

 18 19  0  0  0  0  0  0  0  0999 V2000
   -1.4520   12.7410   -4.4060 O   0  0  0  0  0  0  0  0  0  0  0  0
   -0.9400   14.0570   -4.1820 C   0  0  1  0  0  0  0  0  0  0  0  0
   -0.1510   14.2710   -2.8990 C   0  0  2  0  0  0  0  0  0  0  0  0
    0.1790   14.3800   -5.1510 C   0  0  2  0  0  0  0  0  0  0  0  0
    1.1190   13.2990   -5.1780 O   0  0  0  0  0  0  0  0  0  0  0  0
   -0.9780   14.2830   -1.6160 C   0  0  0  0  0  0  0  0  0  0  0  0
    0.4400   15.5760   -3.1100 O   0  0  0  0  0  0  0  0  0  0  0  0
    0.8070   15.6240   -4.5170 C   0  0  2  0  0  0  0  0  0  0  0  0
    0.3070   16.9370   -5.1160 C   0  0  0  0  0  0  0  0  0  0  0  0
   -0.3430   13.8230   -0.3010 C   0  0  0  0  0  0  0  0  0  0  0  0
   -0.4480   14.8160    0.8620 C   0  0  0  0  0  0  0  0  0  0  0  0
   -1.7510   14.7280    1.5340 N   0  0  0  0  0  0  0  0  0  0  0  0
   -2.8550   14.7250    0.8410 C   0  0  0  0  0  0  0  0  0  0  0  0
   -3.1490   14.7660   -0.6490 C   0  0  0  0  0  0  0  0  0  0  0  0
   -4.0420   14.6740    1.4790 N   0  0  0  0  0  0  0  0  0  0  0  0
   -4.5140   15.1860   -0.6020 N   0  0  0  0  0  0  0  0  0  0  0  0
   -5.0570   14.8710    0.6090 C   0  0  0  0  0  0  0  0  0  0  0  0
   -6.2510   14.7860    0.8410 O   0  0  0  0  0  0  0  0  0  0  0  0
  2  1  1  6
  2  3  1  0
  2  4  1  0
  4  5  1  1
  3  6  1  1
  3  7  1  0
  4  8  1  0
  7  8  1  0
  8  9  1  6
  6 10  1  0
 10 11  1  0
 11 12  1  0
 12 13  2  3
 13 14  1  0
 13 15  1  0
 14 16  1  0
 15 17  1  0
 16 17  1  0
 17 18  2  0
M  END
>  <%Rank>  (134) 
10.152672

>  <N_hits>  (134) 
2

>  <submitter_name>  (134) 
nan

>  <original SMILES>  (134) 
nan

>  <∆G_unbound>  (134) 
1.628288

>  <∆G_bound>  (134) 
-5.711399

>  <regarded>  (134) 
5CMS_0_I_γ,mArh-x0895_1_A_α

>  <ref_pdb>  (134) 
nan

>  <smiles>  (134) 
CC1OC(CCCN=C2CNC(=O)N2)C(O)C1O

>  <submitter_email>  (134) 
nan

>  <disregarded>  (134) 


>  <LE>  (134) 
-0.40776

>  <submitter_institution>  (134) 
nan

>  <ref_mols>  (134) 
5CMS_0_I,mArh-x0895_1_A

>  <N_constrained_atoms>  (134) 
15.0

>  <ref_url>  (134) 
nan

>  <method>  (134) 
nan

>  <comRMSD>  (134) 
0.336922

>  <N_unconstrained_atoms>  (134) 
3.0

>  <∆∆G>  (134) 
-7.339688

>  <runtime>  (134) 
34.969418

>  <generation_date>  (134) 
nan

$$$$
mArh-6vxs_B_0_B_α-mArh-x0496_0_A_α
     RDKit          3D

 30 31  0  0  0  0  0  0  0  0999 V2000
    9.1310   33.6010    9.1170 N   0  0  0  0  0  0  0  0  0  0  0  0
    9.6320   32.7660    8.0240 C   0  0  0  0  0  0  0  0  0  0  0  0
   10.8380   31.9470    8.4780 C   0  0  0  0  0  0  0  0  0  0  0  0
    8.4860   34.8630    8.7010 C   0  0  2  0  0  0  0  0  0  0  0  0
    8.0540   35.6670    9.9390 C   0  0  0  0  0  0  0  0  0  0  0  0
    7.2640   34.5810    7.7920 C   0  0  0  0  0  0  0  0  0  0  0  0
   10.3560   30.4910    9.4030 S   0  0  0  0  0  0  0  0  0  0  0  0
    7.2500   36.9170    9.5880 C   0  0  0  0  0  0  0  0  0  0  0  0
    6.4900   35.8810    7.4350 C   0  0  2  0  0  0  0  0  0  0  0  0
   11.5050   29.6470    9.6810 O   0  0  0  0  0  0  0  0  0  0  0  0
    9.1590   29.9540    8.8140 O   0  0  0  0  0  0  0  0  0  0  0  0
    9.9530   31.1970   10.7980 O   0  0  0  0  0  0  0  0  0  0  0  0
    7.3020   36.9160    6.6120 C   0  0  0  0  0  0  0  0  0  0  0  0
    6.0530   36.5610    8.7270 C   0  0  0  0  0  0  0  0  0  0  0  0
    7.4500   36.5940    5.1280 C   0  0  0  0  0  0  0  0  0  0  0  0
    6.3370   37.2350    4.2860 C   0  0  0  0  0  0  0  0  0  0  0  0
    6.3730   36.7610    2.8340 C   0  0  0  0  0  0  0  0  0  0  0  0
    5.7000   37.5820    1.8780 N   0  0  0  0  0  0  0  0  0  0  0  0
    4.4880   37.6580    1.4660 C   0  0  0  0  0  0  0  0  0  0  0  0
    3.3150   36.9750    1.7830 N   0  0  0  0  0  0  0  0  0  0  0  0
    4.4340   38.7360    0.4490 C   0  0  0  0  0  0  0  0  0  0  0  0
    4.8170   38.6120   -0.8620 C   0  0  0  0  0  0  0  0  0  0  0  0
    3.9780   39.8730    1.0220 N   0  0  0  0  0  0  0  0  0  0  0  0
    5.4130   37.2130   -1.6480 Cl  0  0  0  0  0  0  0  0  0  0  0  0
    4.7020   39.7770   -1.5780 C   0  0  0  0  0  0  0  0  0  0  0  0
    3.9160   40.9400    0.2370 C   0  0  0  0  0  0  0  0  0  0  0  0
    3.4350   42.2210    0.8600 C   0  0  0  0  0  0  0  0  0  0  0  0
    4.2610   40.9490   -1.0630 N   0  0  0  0  0  0  0  0  0  0  0  0
    1.9730   42.4460    0.5180 C   0  0  0  0  0  0  0  0  0  0  0  0
    4.3000   43.4110    0.4590 C   0  0  0  0  0  0  0  0  0  0  0  0
  1  2  1  0
  2  3  1  0
  4  1  1  1
  4  5  1  0
  4  6  1  0
  3  7  1  0
  5  8  1  0
  6  9  1  0
  7 10  2  0
  7 11  2  0
  7 12  1  0
  9 13  1  1
  8 14  1  0
  9 14  1  0
 13 15  1  0
 15 16  1  0
 16 17  1  0
 17 18  1  0
 18 19  2  3
 19 20  1  0
 19 21  1  0
 21 22  2  0
 21 23  1  0
 22 24  1  0
 22 25  1  0
 23 26  2  0
 26 27  1  0
 25 28  2  0
 26 28  1  0
 27 29  1  0
 27 30  1  0
M  END
>  <%Rank>  (135) 
10.229008

>  <N_hits>  (135) 
2

>  <submitter_name>  (135) 
nan

>  <original SMILES>  (135) 
nan

>  <∆G_unbound>  (135) 
0.310115

>  <∆G_bound>  (135) 
-6.988249

>  <regarded>  (135) 
mArh-6vxs_B_0_B_α,mArh-x0496_0_A_α

>  <ref_pdb>  (135) 
nan

>  <smiles>  (135) 
CC(C)c1ncc(Cl)c(C(N)=NCCCCC2CCCC(NCCS(=O)(=O)O)C2)n1

>  <submitter_email>  (135) 
nan

>  <disregarded>  (135) 


>  <LE>  (135) 
-0.243279

>  <submitter_institution>  (135) 
nan

>  <ref_mols>  (135) 
mArh-6vxs_B_0_B,mArh-x0496_0_A

>  <N_constrained_atoms>  (135) 
26.0

>  <ref_url>  (135) 
nan

>  <method>  (135) 
nan

>  <comRMSD>  (135) 
0.482874

>  <N_unconstrained_atoms>  (135) 
4.0

>  <∆∆G>  (135) 
-7.298364

>  <runtime>  (135) 
46.774743

>  <generation_date>  (135) 
nan

$$$$
6WOJ_0_D_β-1HJZ_0_B_α
     RDKit          3D

 16 16  0  0  0  0  0  0  0  0999 V2000
   -1.5430   20.8420   -8.4720 O   0  0  0  0  0  0  0  0  0  0  0  0
   -0.8340   19.7700   -7.6160 P   0  0  0  0  0  0  0  0  0  0  0  0
   -0.3290   18.9660   -6.3820 O   0  0  0  0  0  0  0  0  0  0  0  0
   -1.8880   21.9740   -7.6520 C   0  0  0  0  0  0  0  0  0  0  0  0
    0.3380   20.9520   -7.3790 O   0  0  0  0  0  0  0  0  0  0  0  0
   -0.3860   18.6610   -8.6890 O   0  0  0  0  0  0  0  0  0  0  0  0
   -3.3110   22.2250   -7.6920 N   0  0  0  0  0  0  0  0  0  0  0  0
   -1.2810   17.9520   -5.7010 P   0  0  0  0  0  0  0  0  0  0  0  0
   -3.6410   22.6890   -9.0130 C   0  0  0  0  0  0  0  0  0  0  0  0
   -3.7310   23.2430   -6.7610 C   0  0  0  0  0  0  0  0  0  0  0  0
   -0.0390   16.8310   -5.6390 O   0  0  0  0  0  0  0  0  0  0  0  0
   -1.5550   18.9520   -4.4510 O   0  0  0  0  0  0  0  0  0  0  0  0
   -2.3750   17.9090   -6.8850 O   0  0  0  0  0  0  0  0  0  0  0  0
   -5.0790   23.1110   -9.1720 C   0  0  0  0  0  0  0  0  0  0  0  0
   -5.1880   23.6190   -6.9640 C   0  0  0  0  0  0  0  0  0  0  0  0
   -5.3970   24.0740   -8.2580 O   0  0  0  0  0  0  0  0  0  0  0  0
  1  2  1  0
  2  3  1  0
  1  4  1  0
  2  5  1  0
  2  6  1  0
  4  7  1  0
  3  8  1  0
  7  9  1  0
  7 10  1  0
  8 11  1  0
  8 12  1  0
  8 13  1  0
  9 14  1  0
 10 15  1  0
 14 16  1  0
 15 16  1  0
M  CHG  2   5  -1  12  -1
M  END
>  <%Rank>  (136) 
10.305344

>  <N_hits>  (136) 
2

>  <submitter_name>  (136) 
nan

>  <original SMILES>  (136) 
nan

>  <∆G_unbound>  (136) 
1.136978

>  <∆G_bound>  (136) 
-9.642765

>  <regarded>  (136) 
6WOJ_0_D_β,1HJZ_0_B_α

>  <ref_pdb>  (136) 
nan

>  <smiles>  (136) 
[O-][PH](O)(O)O[PH]([O-])(O)OCN1CCOCC1

>  <submitter_email>  (136) 
nan

>  <disregarded>  (136) 


>  <LE>  (136) 
-0.673734

>  <submitter_institution>  (136) 
nan

>  <ref_mols>  (136) 
6WOJ_0_D,1HJZ_0_B

>  <N_constrained_atoms>  (136) 
16.0

>  <ref_url>  (136) 
nan

>  <method>  (136) 
nan

>  <comRMSD>  (136) 
0.594759

>  <N_unconstrained_atoms>  (136) 
0.0

>  <∆∆G>  (136) 
-10.779743

>  <runtime>  (136) 
36.275613

>  <generation_date>  (136) 
nan

$$$$
mArh-6mea_B_0_B_β-2BFQ_1_A_β
     RDKit          3D

  9  8  0  0  0  0  0  0  0  0999 V2000
   -1.5290   20.3230   -8.0160 O   0  0  0  0  0  0  0  0  0  0  0  0
   -0.0970   19.7330   -7.6230 P   0  0  0  0  0  0  0  0  0  0  0  0
   -0.2830   18.8770   -6.3330 O   0  0  0  0  0  0  0  0  0  0  0  0
    0.9850   20.7600   -7.5920 O   0  0  0  0  0  0  0  0  0  0  0  0
    0.1180   18.6200   -8.7550 O   0  0  0  0  0  0  0  0  0  0  0  0
   -1.5850   18.1440   -5.8500 P   0  0  0  0  0  0  0  0  0  0  0  0
   -1.0670   16.8000   -5.1750 O   0  0  0  0  0  0  0  0  0  0  0  0
   -2.6190   17.9350   -6.8910 O   0  0  0  0  0  0  0  0  0  0  0  0
   -2.0350   19.0500   -4.6340 O   0  0  0  0  0  0  0  0  0  0  0  0
  1  2  1  0
  2  3  1  0
  2  4  2  0
  2  5  1  0
  3  6  1  0
  6  7  1  0
  6  8  2  0
  6  9  1  0
M  END
>  <%Rank>  (137) 
10.381679

>  <N_hits>  (137) 
2

>  <submitter_name>  (137) 
nan

>  <original SMILES>  (137) 
nan

>  <∆G_unbound>  (137) 
0.687887

>  <∆G_bound>  (137) 
-8.36929

>  <regarded>  (137) 
mArh-6mea_B_0_B_β,2BFQ_1_A_β

>  <ref_pdb>  (137) 
nan

>  <smiles>  (137) 
O=P(O)(O)OP(=O)(O)O

>  <submitter_email>  (137) 
nan

>  <disregarded>  (137) 


>  <LE>  (137) 
-1.006353

>  <submitter_institution>  (137) 
nan

>  <ref_mols>  (137) 
mArh-6mea_B_0_B,2BFQ_1_A

>  <N_constrained_atoms>  (137) 
9.0

>  <ref_url>  (137) 
nan

>  <method>  (137) 
nan

>  <comRMSD>  (137) 
0.560371

>  <N_unconstrained_atoms>  (137) 
0.0

>  <∆∆G>  (137) 
-9.057177

>  <runtime>  (137) 
28.785419

>  <generation_date>  (137) 
nan

$$$$
mArh-x0628_0_A_α-5CB5_0_G_α
     RDKit          3D

 28 29  0  0  0  0  0  0  0  0999 V2000
   -0.6100    9.3080   -7.4830 C   0  0  0  0  0  0  0  0  0  0  0  0
   -0.7880   10.3810   -6.4850 C   0  0  0  0  0  0  0  0  0  0  0  0
   -1.9420   10.5270   -5.7660 N   0  0  0  0  0  0  0  0  0  0  0  0
    0.1600   11.2830   -6.2050 N   0  0  0  0  0  0  0  0  0  0  0  0
   -0.4330   12.0360   -5.2430 N   0  0  0  0  0  0  0  0  0  0  0  0
   -1.6950   11.5700   -4.9950 C   0  0  0  0  0  0  0  0  0  0  0  0
   -2.6420   12.1410   -4.0060 C   0  0  0  0  0  0  0  0  0  0  0  0
    0.2910   13.1540   -4.6290 C   0  0  1  0  0  0  0  0  0  0  0  0
    1.5560   12.7880   -3.9040 C   0  0  0  0  0  0  0  0  0  0  0  0
    0.4040   14.3970   -5.4930 C   0  0  0  0  0  0  0  0  0  0  0  0
    1.1050   12.1350   -2.6480 C   0  0  0  0  0  0  0  0  0  0  0  0
   -0.2860   15.6540   -4.9360 C   0  0  0  0  0  0  0  0  0  0  0  0
    0.6780   10.9990   -2.5350 O   0  0  0  0  0  0  0  0  0  0  0  0
    1.1990   12.9590   -1.5990 O   0  0  0  0  0  0  0  0  0  0  0  0
    0.5840   16.9020   -5.1230 C   0  0  0  0  0  0  0  0  0  0  0  0
   -0.2010   18.0510   -5.7580 C   0  0  0  0  0  0  0  0  0  0  0  0
    0.6420   18.8240   -6.7700 C   0  0  0  0  0  0  0  0  0  0  0  0
   -0.0560   19.6840   -7.8300 C   0  0  0  0  0  0  0  0  0  0  0  0
   -1.4260   20.2520   -7.4560 C   0  0  0  0  0  0  0  0  0  0  0  0
   -1.9050   21.3640   -8.3880 C   0  0  0  0  0  0  0  0  0  0  0  0
   -3.2080   21.9940   -7.9130 C   0  0  2  0  0  0  0  0  0  0  0  0
   -4.3210   21.0930   -8.0570 O   0  0  0  0  0  0  0  0  0  0  0  0
   -3.7250   23.2830   -8.5260 C   0  0  1  0  0  0  0  0  0  0  0  0
   -4.0140   23.2320   -9.9270 O   0  0  0  0  0  0  0  0  0  0  0  0
   -5.4680   21.8630   -7.6670 C   0  0  2  0  0  0  0  0  0  0  0  0
   -5.0470   23.3560   -7.7780 C   0  0  2  0  0  0  0  0  0  0  0  0
   -5.7520   21.5760   -6.2990 O   0  0  0  0  0  0  0  0  0  0  0  0
   -5.9600   24.1260   -8.5540 O   0  0  0  0  0  0  0  0  0  0  0  0
  1  2  1  0
  2  3  1  0
  2  4  2  0
  4  5  1  0
  3  6  2  0
  5  6  1  0
  6  7  1  0
  5  8  1  0
  8  9  1  6
  8 10  1  0
  9 11  1  0
 10 12  1  0
 11 13  2  0
 11 14  1  0
 12 15  1  0
 15 16  1  0
 16 17  1  0
 17 18  1  0
 18 19  1  0
 19 20  1  0
 21 20  1  6
 21 22  1  0
 21 23  1  0
 23 24  1  6
 22 25  1  0
 23 26  1  0
 25 26  1  0
 25 27  1  1
 26 28  1  6
M  END
>  <%Rank>  (138) 
10.458015

>  <N_hits>  (138) 
2

>  <submitter_name>  (138) 
nan

>  <original SMILES>  (138) 
nan

>  <∆G_unbound>  (138) 
2.119446

>  <∆G_bound>  (138) 
-10.836127

>  <regarded>  (138) 
mArh-x0628_0_A_α,5CB5_0_G_α

>  <ref_pdb>  (138) 
nan

>  <smiles>  (138) 
Cc1nc(C)n(C(CCCCCCCCC2OC(O)C(O)C2O)CC(=O)O)n1

>  <submitter_email>  (138) 
nan

>  <disregarded>  (138) 


>  <LE>  (138) 
-0.462699

>  <submitter_institution>  (138) 
nan

>  <ref_mols>  (138) 
mArh-x0628_0_A,5CB5_0_G

>  <N_constrained_atoms>  (138) 
21.0

>  <ref_url>  (138) 
nan

>  <method>  (138) 
nan

>  <comRMSD>  (138) 
0.427077

>  <N_unconstrained_atoms>  (138) 
7.0

>  <∆∆G>  (138) 
-12.955573

>  <runtime>  (138) 
50.448291

>  <generation_date>  (138) 
nan

$$$$
5CB5_0_J_γ-6MEA_0_A_β
     RDKit          3D

 16 16  0  0  0  0  0  0  0  0999 V2000
   -0.3600   12.4650   -3.8470 O   0  0  0  0  0  0  0  0  0  0  0  0
   -0.8110   13.7750   -3.9280 C   0  0  1  0  0  0  0  0  0  0  0  0
   -0.3560   14.6360   -2.7490 C   0  0  0  0  0  0  0  0  0  0  0  0
   -0.2300   14.5010   -5.1030 C   0  0  2  0  0  0  0  0  0  0  0  0
    1.1280   14.1790   -5.1980 O   0  0  0  0  0  0  0  0  0  0  0  0
    0.0920   15.8380   -3.3310 O   0  0  0  0  0  0  0  0  0  0  0  0
   -0.4950   15.8560   -4.5750 C   0  0  1  0  0  0  0  0  0  0  0  0
   -0.1310   17.0910   -5.3910 C   0  0  0  0  0  0  0  0  0  0  0  0
   -1.5300   18.1080   -5.6170 P   0  0  0  0  0  0  0  0  0  0  0  0
   -0.9300   19.3920   -6.1790 O   0  0  0  0  0  0  0  0  0  0  0  0
   -2.5020   18.0400   -7.0100 O   0  0  0  0  0  0  0  0  0  0  0  0
   -2.0500   19.0230   -4.4340 O   0  0  0  0  0  0  0  0  0  0  0  0
   -0.1710   19.6760   -7.5430 P   0  0  0  0  0  0  0  0  0  0  0  0
   -1.3950   20.3640   -8.1630 O   0  0  0  0  0  0  0  0  0  0  0  0
    0.6700   21.1120   -7.7470 O   0  0  0  0  0  0  0  0  0  0  0  0
   -0.0720   18.5160   -8.7010 O   0  0  0  0  0  0  0  0  0  0  0  0
  2  1  1  1
  2  3  1  0
  2  4  1  0
  4  5  1  1
  3  6  1  0
  4  7  1  0
  6  7  1  0
  7  8  1  6
  8  9  1  0
  9 10  1  0
  9 11  1  0
  9 12  1  0
 10 13  1  0
 13 14  1  0
 13 15  1  0
 13 16  1  0
M  CHG  2  11  -1  15  -1
M  END
>  <%Rank>  (139) 
10.534351

>  <N_hits>  (139) 
2

>  <submitter_name>  (139) 
nan

>  <original SMILES>  (139) 
nan

>  <∆G_unbound>  (139) 
0.683631

>  <∆G_bound>  (139) 
-7.610837

>  <regarded>  (139) 
5CB5_0_J_γ,6MEA_0_A_β

>  <ref_pdb>  (139) 
nan

>  <smiles>  (139) 
[O-][PH](O)(O)O[PH]([O-])(O)CC1OCC(O)C1O

>  <submitter_email>  (139) 
nan

>  <disregarded>  (139) 


>  <LE>  (139) 
-0.518404

>  <submitter_institution>  (139) 
nan

>  <ref_mols>  (139) 
5CB5_0_J,6MEA_0_A

>  <N_constrained_atoms>  (139) 
16.0

>  <ref_url>  (139) 
nan

>  <method>  (139) 
nan

>  <comRMSD>  (139) 
0.52001

>  <N_unconstrained_atoms>  (139) 
0.0

>  <∆∆G>  (139) 
-8.294469

>  <runtime>  (139) 
33.355979

>  <generation_date>  (139) 
nan

$$$$
mArh-x0855_0_A_α-mArh-5cb5_D_0_D_β
     RDKit          3D

 22 22  0  0  0  0  0  0  0  0999 V2000
    1.6390   13.0790   -2.5320 O   0  0  0  0  0  0  0  0  0  0  0  0
    0.8480   12.2750   -3.2570 C   0  0  0  0  0  0  0  0  0  0  0  0
    0.0730   12.9790   -4.3480 C   0  0  1  0  0  0  0  0  0  0  0  0
    0.7700   11.0810   -3.0140 O   0  0  0  0  0  0  0  0  0  0  0  0
    0.9360   13.8630   -5.2810 C   0  0  0  0  0  0  0  0  0  0  0  0
   -0.7010   11.9480   -5.0280 N   0  0  0  0  0  0  0  0  0  0  0  0
    0.8900   15.3950   -4.9990 C   0  0  0  0  0  0  0  0  0  0  0  0
   -0.3220   11.0280   -5.9750 C   0  0  0  0  0  0  0  0  0  0  0  0
   -2.0040   11.8470   -4.6890 N   0  0  0  0  0  0  0  0  0  0  0  0
   -0.4640   16.1240   -5.0370 C   0  0  0  0  0  0  0  0  0  0  0  0
   -1.4570   10.2970   -6.2370 C   0  0  0  0  0  0  0  0  0  0  0  0
   -2.4560   10.8390   -5.4290 C   0  0  0  0  0  0  0  0  0  0  0  0
   -1.6860    8.8690   -7.4120 Br  0  0  0  0  0  0  0  0  0  0  0  0
   -0.3720   17.3010   -5.8510 O   0  0  0  0  0  0  0  0  0  0  0  0
   -1.6470   18.2760   -6.0480 P   0  0  1  0  0  0  0  0  0  0  0  0
   -1.0700   19.6580   -6.5360 O   0  0  0  0  0  0  0  0  0  0  0  0
   -2.7480   17.7010   -6.8680 O   0  0  0  0  0  0  0  0  0  0  0  0
   -2.0330   18.7240   -4.5720 O   0  0  0  0  0  0  0  0  0  0  0  0
   -0.2930   19.9060   -7.8690 P   0  0  0  0  0  0  0  0  0  0  0  0
   -1.3590   20.7030   -8.7210 O   0  0  0  0  0  0  0  0  0  0  0  0
    0.9930   20.6160   -7.6600 O   0  0  0  0  0  0  0  0  0  0  0  0
   -0.1950   18.5310   -8.6720 O   0  0  0  0  0  0  0  0  0  0  0  0
  1  2  1  0
  2  3  1  0
  2  4  2  0
  3  5  1  6
  3  6  1  0
  5  7  1  0
  6  8  1  0
  6  9  1  0
  7 10  1  0
  8 11  2  0
  9 12  2  0
 11 12  1  0
 11 13  1  0
 10 14  1  0
 14 15  1  0
 15 16  1  0
 15 17  2  0
 15 18  1  1
 16 19  1  0
 19 20  1  0
 19 21  2  0
 19 22  1  0
M  END
>  <%Rank>  (140) 
10.610687

>  <N_hits>  (140) 
2

>  <submitter_name>  (140) 
nan

>  <original SMILES>  (140) 
nan

>  <∆G_unbound>  (140) 
5.537088

>  <∆G_bound>  (140) 
-9.364595

>  <regarded>  (140) 
mArh-x0855_0_A_α,mArh-5cb5_D_0_D_β

>  <ref_pdb>  (140) 
nan

>  <smiles>  (140) 
O=C(O)C(CCCOP(=O)(O)OP(=O)(O)O)n1cc(Br)cn1

>  <submitter_email>  (140) 
nan

>  <disregarded>  (140) 


>  <LE>  (140) 
-0.677349

>  <submitter_institution>  (140) 
nan

>  <ref_mols>  (140) 
mArh-x0855_0_A,mArh-5cb5_D_0_D

>  <N_constrained_atoms>  (140) 
19.0

>  <ref_url>  (140) 
nan

>  <method>  (140) 
nan

>  <comRMSD>  (140) 
0.584853

>  <N_unconstrained_atoms>  (140) 
3.0

>  <∆∆G>  (140) 
-14.901683

>  <runtime>  (140) 
45.04792

>  <generation_date>  (140) 
nan

$$$$
2FAV_0_B_β-5CB5_0_E_γ
     RDKit          3D

 16 16  0  0  0  0  0  0  0  0999 V2000
   -1.2490   20.9990   -8.2320 O   0  0  0  0  0  0  0  0  0  0  0  0
   -0.3490   19.6840   -7.7810 P   0  0  0  0  0  0  0  0  0  0  0  0
   -0.2760   19.2270   -6.2080 O   0  0  0  0  0  0  0  0  0  0  0  0
    0.8650   20.5960   -7.5840 O   0  0  0  0  0  0  0  0  0  0  0  0
    0.2570   18.7090   -8.8710 O   0  0  0  0  0  0  0  0  0  0  0  0
   -1.4090   18.1410   -5.8870 P   0  0  0  0  0  0  0  0  0  0  0  0
   -0.3910   16.9320   -5.9010 O   0  0  0  0  0  0  0  0  0  0  0  0
   -1.7870   17.6890   -4.3780 O   0  0  0  0  0  0  0  0  0  0  0  0
   -2.4410   17.5840   -6.9900 O   0  0  0  0  0  0  0  0  0  0  0  0
   -0.0470   16.0300   -4.8680 C   0  0  1  0  0  0  0  0  0  0  0  0
   -0.9450   16.0750   -3.8060 O   0  0  0  0  0  0  0  0  0  0  0  0
    0.1010   14.5850   -5.2320 C   0  0  1  0  0  0  0  0  0  0  0  0
    1.2140   13.9690   -4.6230 O   0  0  0  0  0  0  0  0  0  0  0  0
   -1.0070   14.7920   -3.2470 C   0  0  0  0  0  0  0  0  0  0  0  0
   -1.1120   13.9780   -4.5280 C   0  0  2  0  0  0  0  0  0  0  0  0
   -0.8890   12.6360   -4.3390 O   0  0  0  0  0  0  0  0  0  0  0  0
  1  2  1  0
  2  3  1  0
  2  4  1  0
  2  5  1  0
  3  6  1  0
  6  7  1  0
  6  8  1  0
  6  9  1  0
 10  7  1  6
 10 11  1  0
 10 12  1  0
 12 13  1  1
 11 14  1  0
 12 15  1  0
 14 15  1  0
 15 16  1  1
M  CHG  2   4  -1   8  -1
M  END
>  <%Rank>  (141) 
10.687023

>  <N_hits>  (141) 
2

>  <submitter_name>  (141) 
nan

>  <original SMILES>  (141) 
nan

>  <∆G_unbound>  (141) 
1.160673

>  <∆G_bound>  (141) 
-5.693754

>  <regarded>  (141) 
2FAV_0_B_β,5CB5_0_E_γ

>  <ref_pdb>  (141) 
nan

>  <smiles>  (141) 
[O-][PH](O)(O)O[PH]([O-])(O)OC1OCC(O)C1O

>  <submitter_email>  (141) 
nan

>  <disregarded>  (141) 


>  <LE>  (141) 
-0.428402

>  <submitter_institution>  (141) 
nan

>  <ref_mols>  (141) 
2FAV_0_B,5CB5_0_E

>  <N_constrained_atoms>  (141) 
16.0

>  <ref_url>  (141) 
nan

>  <method>  (141) 
nan

>  <comRMSD>  (141) 
0.475303

>  <N_unconstrained_atoms>  (141) 
0.0

>  <∆∆G>  (141) 
-6.854427

>  <runtime>  (141) 
23.170828

>  <generation_date>  (141) 
nan

$$$$
mArh-5cms_M_12_M_β-mArh-2bfq_0_A_α
     RDKit          3D

 19 19  0  0  0  0  0  0  0  0999 V2000
   -1.7980   20.0030   -8.0780 O   0  0  0  0  0  0  0  0  0  0  0  0
   -0.3110   19.5890   -7.8920 P   0  0  0  0  0  0  0  0  0  0  0  0
   -0.3190   18.8170   -6.5370 O   0  0  0  0  0  0  0  0  0  0  0  0
    0.5170   21.0210   -7.9170 N   0  0  0  0  0  0  0  0  0  0  0  0
    0.0520   18.5620   -9.0020 O   0  0  0  0  0  0  0  0  0  0  0  0
   -1.6030   18.0950   -5.9500 P   0  0  0  0  0  0  0  0  0  0  0  0
   -0.3690   22.1140   -7.5270 C   0  0  0  0  0  0  0  0  0  0  0  0
   -1.0460   16.8240   -5.1660 O   0  0  0  0  0  0  0  0  0  0  0  0
   -2.6630   17.7700   -6.9390 O   0  0  0  0  0  0  0  0  0  0  0  0
   -2.1000   19.0900   -4.8140 O   0  0  0  0  0  0  0  0  0  0  0  0
   -1.6720   22.3090   -8.3120 C   0  0  0  0  0  0  0  0  0  0  0  0
   -2.9370   22.4140   -7.4750 C   0  0  2  0  0  0  0  0  0  0  0  0
   -4.0500   21.5590   -7.8830 O   0  0  0  0  0  0  0  0  0  0  0  0
   -3.5960   23.7790   -7.5220 C   0  0  1  0  0  0  0  0  0  0  0  0
   -4.2000   24.1220   -8.7750 O   0  0  0  0  0  0  0  0  0  0  0  0
   -5.2110   22.2810   -7.4230 C   0  0  2  0  0  0  0  0  0  0  0  0
   -4.6420   23.3780   -6.5480 C   0  0  2  0  0  0  0  0  0  0  0  0
   -6.1520   21.4580   -6.7570 O   0  0  0  0  0  0  0  0  0  0  0  0
   -5.5400   24.4170   -6.1990 O   0  0  0  0  0  0  0  0  0  0  0  0
  1  2  1  0
  2  3  1  0
  2  4  2  3
  2  5  1  0
  3  6  1  0
  4  7  1  0
  6  8  1  0
  6  9  2  0
  6 10  1  0
  7 11  1  0
 12 11  1  6
 12 13  1  0
 12 14  1  0
 14 15  1  6
 13 16  1  0
 14 17  1  0
 16 17  1  0
 16 18  1  1
 17 19  1  6
M  END
>  <%Rank>  (142) 
10.763359

>  <N_hits>  (142) 
2

>  <submitter_name>  (142) 
nan

>  <original SMILES>  (142) 
nan

>  <∆G_unbound>  (142) 
1.1668

>  <∆G_bound>  (142) 
-13.111127

>  <regarded>  (142) 
mArh-5cms_M_12_M_β,mArh-2bfq_0_A_α

>  <ref_pdb>  (142) 
nan

>  <smiles>  (142) 
O=P(O)(O)OP(O)(O)=NCCC1OC(O)C(O)C1O

>  <submitter_email>  (142) 
nan

>  <disregarded>  (142) 


>  <LE>  (142) 
-0.75147

>  <submitter_institution>  (142) 
nan

>  <ref_mols>  (142) 
mArh-5cms_M_12_M,mArh-2bfq_0_A

>  <N_constrained_atoms>  (142) 
18.0

>  <ref_url>  (142) 
nan

>  <method>  (142) 
nan

>  <comRMSD>  (142) 
0.653108

>  <N_unconstrained_atoms>  (142) 
1.0

>  <∆∆G>  (142) 
-14.277927

>  <runtime>  (142) 
38.031602

>  <generation_date>  (142) 
nan

$$$$
mArh-6mea_B_0_B_β-2BFQ_1_A_γ
     RDKit          3D

 16 16  0  0  0  0  0  0  0  0999 V2000
   -1.6890   20.5280   -8.1800 O   0  0  0  0  0  0  0  0  0  0  0  0
   -0.2890   19.9370   -7.7190 P   0  0  0  0  0  0  0  0  0  0  0  0
   -0.5430   19.3810   -6.2720 O   0  0  0  0  0  0  0  0  0  0  0  0
    0.8190   20.9160   -7.7780 O   0  0  0  0  0  0  0  0  0  0  0  0
   -0.1140   18.6850   -8.6970 O   0  0  0  0  0  0  0  0  0  0  0  0
   -1.3960   18.1230   -5.8830 P   0  0  2  0  0  0  0  0  0  0  0  0
   -0.2980   17.0160   -5.5100 O   0  0  0  0  0  0  0  0  0  0  0  0
   -2.5280   17.7440   -6.7740 O   0  0  0  0  0  0  0  0  0  0  0  0
   -1.8650   18.6430   -4.4470 O   0  0  0  0  0  0  0  0  0  0  0  0
   -0.6740   16.0050   -4.6060 C   0  0  2  0  0  0  0  0  0  0  0  0
   -0.0680   16.0720   -3.3110 O   0  0  0  0  0  0  0  0  0  0  0  0
   -0.3540   14.5710   -5.0070 C   0  0  1  0  0  0  0  0  0  0  0  0
    1.0390   14.2000   -4.9460 O   0  0  0  0  0  0  0  0  0  0  0  0
   -0.4420   14.8190   -2.6950 C   0  0  0  0  0  0  0  0  0  0  0  0
   -1.0300   13.9580   -3.8150 C   0  0  2  0  0  0  0  0  0  0  0  0
   -0.7280   12.5860   -3.7130 O   0  0  0  0  0  0  0  0  0  0  0  0
  1  2  1  0
  2  3  1  0
  2  4  2  0
  2  5  1  0
  3  6  1  0
  6  7  1  0
  6  8  2  0
  6  9  1  1
 10  7  1  6
 10 11  1  0
 10 12  1  0
 12 13  1  1
 11 14  1  0
 12 15  1  0
 14 15  1  0
 15 16  1  1
M  END
>  <%Rank>  (143) 
10.839695

>  <N_hits>  (143) 
2

>  <submitter_name>  (143) 
nan

>  <original SMILES>  (143) 
nan

>  <∆G_unbound>  (143) 
1.157846

>  <∆G_bound>  (143) 
-8.475161

>  <regarded>  (143) 
mArh-6mea_B_0_B_β,2BFQ_1_A_γ

>  <ref_pdb>  (143) 
nan

>  <smiles>  (143) 
O=P(O)(O)OP(=O)(O)OC1OCC(O)C1O

>  <submitter_email>  (143) 
nan

>  <disregarded>  (143) 


>  <LE>  (143) 
-0.602063

>  <submitter_institution>  (143) 
nan

>  <ref_mols>  (143) 
mArh-6mea_B_0_B,2BFQ_1_A

>  <N_constrained_atoms>  (143) 
16.0

>  <ref_url>  (143) 
nan

>  <method>  (143) 
nan

>  <comRMSD>  (143) 
0.56238

>  <N_unconstrained_atoms>  (143) 
0.0

>  <∆∆G>  (143) 
-9.633007

>  <runtime>  (143) 
31.603598

>  <generation_date>  (143) 
nan

$$$$
1SPV_0_A_α-mArh-x0104_0_A_β
     RDKit          3D

 25 26  0  0  0  0  0  0  0  0999 V2000
    1.0680   20.7480   -7.5940 O   0  0  0  0  0  0  0  0  0  0  0  0
   -0.0680   19.6140   -7.6620 S   0  0  0  0  0  0  0  0  0  0  0  0
    0.2490   18.5730   -8.8300 O   0  0  0  0  0  0  0  0  0  0  0  0
   -0.2990   18.8050   -6.2900 O   0  0  0  0  0  0  0  0  0  0  0  0
   -1.6070   20.3290   -8.1650 C   0  0  0  0  0  0  0  0  0  0  0  0
   -1.9500   21.6960   -7.6400 C   0  0  0  0  0  0  0  0  0  0  0  0
   -1.5900   18.4370   -5.7860 C   0  0  0  0  0  0  0  0  0  0  0  0
   -1.7670   16.9180   -5.7570 C   0  0  0  0  0  0  0  0  0  0  0  0
   -3.3820   22.0170   -7.6410 N   0  0  0  0  0  0  0  0  0  0  0  0
   -2.1440   16.3330   -4.4090 C   0  0  0  0  0  0  0  0  0  0  0  0
   -4.0980   21.9930   -8.9130 C   0  0  0  0  0  0  0  0  0  0  0  0
   -3.8100   23.1450   -6.8320 C   0  0  0  0  0  0  0  0  0  0  0  0
   -3.0200   15.0810   -4.3240 C   0  0  0  0  0  0  0  0  0  0  0  0
   -4.9190   23.2420   -9.2120 C   0  0  0  0  0  0  0  0  0  0  0  0
   -5.3150   23.4050   -6.8630 C   0  0  0  0  0  0  0  0  0  0  0  0
   -3.3890   14.7230   -2.8670 C   0  0  0  0  0  0  0  0  0  0  0  0
   -5.8840   23.4770   -8.1810 O   0  0  0  0  0  0  0  0  0  0  0  0
   -4.7700   15.0120   -2.6490 O   0  0  0  0  0  0  0  0  0  0  0  0
   -5.2960   14.9190   -1.3810 C   0  0  0  0  0  0  0  0  0  0  0  0
   -4.4040   14.9020   -0.3610 N   0  0  0  0  0  0  0  0  0  0  0  0
   -6.6650   14.8490   -1.1680 C   0  0  0  0  0  0  0  0  0  0  0  0
   -4.9150   14.8210    0.9000 C   0  0  0  0  0  0  0  0  0  0  0  0
   -7.1540   14.7610    0.1320 C   0  0  0  0  0  0  0  0  0  0  0  0
   -6.2760   14.7490    1.2010 C   0  0  0  0  0  0  0  0  0  0  0  0
   -6.7650   14.6720    2.5060 N   0  0  0  0  0  0  0  0  0  0  0  0
  2  1  1  0
  2  3  1  0
  2  4  1  0
  2  5  1  0
  5  6  1  0
  4  7  1  0
  7  8  1  0
  6  9  1  0
  8 10  1  0
  9 11  1  0
  9 12  1  0
 10 13  1  0
 11 14  1  0
 12 15  1  0
 13 16  1  0
 14 17  1  0
 15 17  1  0
 16 18  1  0
 18 19  1  0
 19 20  2  0
 19 21  1  0
 20 22  1  0
 21 23  2  0
 22 24  2  0
 23 24  1  0
 24 25  1  0
M  END
>  <%Rank>  (144) 
10.916031

>  <N_hits>  (144) 
2

>  <submitter_name>  (144) 
nan

>  <original SMILES>  (144) 
nan

>  <∆G_unbound>  (144) 
0.29345

>  <∆G_bound>  (144) 
-11.422198

>  <regarded>  (144) 
1SPV_0_A_α,mArh-x0104_0_A_β

>  <ref_pdb>  (144) 
nan

>  <smiles>  (144) 
Nc1ccc(OCCCCCOS(O)(O)CCN2CCOCC2)nc1

>  <submitter_email>  (144) 
nan

>  <disregarded>  (144) 


>  <LE>  (144) 
-0.468626

>  <submitter_institution>  (144) 
nan

>  <ref_mols>  (144) 
1SPV_0_A,mArh-x0104_0_A

>  <N_constrained_atoms>  (144) 
21.0

>  <ref_url>  (144) 
nan

>  <method>  (144) 
nan

>  <comRMSD>  (144) 
0.503331

>  <N_unconstrained_atoms>  (144) 
4.0

>  <∆∆G>  (144) 
-11.715647

>  <runtime>  (144) 
53.180207

>  <generation_date>  (144) 
nan

$$$$
5CMS_0_J_δ-mArh-5cb5_R_0_R_β
     RDKit          3D

 21 22  0  0  0  0  0  0  0  0999 V2000
   -4.1960   15.5070    1.6690 N   0  0  0  0  0  0  0  0  0  0  0  0
   -2.9250   15.4140    0.9810 C   0  0  2  0  0  0  0  0  0  0  0  0
   -3.0010   14.6570   -0.3330 C   0  0  2  0  0  0  0  0  0  0  0  0
   -1.9880   14.7120    1.8340 N   0  0  0  0  0  0  0  0  0  0  0  0
   -1.5570   14.6740   -0.7580 C   0  0  2  0  0  0  0  0  0  0  0  0
   -3.6740   15.2970   -1.5100 N   0  0  0  0  0  0  0  0  0  0  0  0
   -0.6220   14.5530    1.2860 C   0  0  0  0  0  0  0  0  0  0  0  0
   -1.6390   14.4010   -2.1420 N   0  0  0  0  0  0  0  0  0  0  0  0
   -2.5020   15.5180   -2.3690 C   0  0  1  0  0  0  0  0  0  0  0  0
   -0.6850   13.8800    0.0160 N   0  0  0  0  0  0  0  0  0  0  0  0
   -2.6470   15.8800   -3.8320 C   0  0  0  0  0  0  0  0  0  0  0  0
   -1.4440   16.7620   -4.1770 C   0  0  0  0  0  0  0  0  0  0  0  0
   -1.8460   18.0430   -4.6390 O   0  0  0  0  0  0  0  0  0  0  0  0
   -1.6030   18.2340   -6.1850 P   0  0  1  0  0  0  0  0  0  0  0  0
   -1.1280   19.6720   -6.5800 O   0  0  0  0  0  0  0  0  0  0  0  0
   -0.2140   17.4470   -6.2990 O   0  0  0  0  0  0  0  0  0  0  0  0
   -2.6160   17.5980   -7.0310 O   0  0  0  0  0  0  0  0  0  0  0  0
   -0.3490   20.0640   -7.8870 P   0  0  0  0  0  0  0  0  0  0  0  0
   -1.4250   20.8270   -8.7750 O   0  0  0  0  0  0  0  0  0  0  0  0
    0.8830   20.8820   -7.6930 O   0  0  0  0  0  0  0  0  0  0  0  0
   -0.0820   18.7480   -8.7570 O   0  0  0  0  0  0  0  0  0  0  0  0
  2  1  1  1
  2  3  1  0
  2  4  1  0
  3  5  1  0
  3  6  1  6
  4  7  1  0
  5  8  1  6
  6  9  1  0
  8  9  1  0
  5 10  1  0
  7 10  1  0
  9 11  1  6
 11 12  1  0
 12 13  1  0
 13 14  1  0
 14 15  1  0
 14 16  1  6
 14 17  2  0
 15 18  1  0
 18 19  1  0
 18 20  2  0
 18 21  1  0
M  END
>  <%Rank>  (145) 
10.992366

>  <N_hits>  (145) 
2

>  <submitter_name>  (145) 
nan

>  <original SMILES>  (145) 
nan

>  <∆G_unbound>  (145) 
1.894859

>  <∆G_bound>  (145) 
-10.270039

>  <regarded>  (145) 
5CMS_0_J_δ,mArh-5cb5_R_0_R_β

>  <ref_pdb>  (145) 
nan

>  <smiles>  (145) 
NC1NCNC2NC(CCOP(=O)(O)OP(=O)(O)O)NC12

>  <submitter_email>  (145) 
nan

>  <disregarded>  (145) 


>  <LE>  (145) 
-0.579281

>  <submitter_institution>  (145) 
nan

>  <ref_mols>  (145) 
5CMS_0_J,mArh-5cb5_R_0_R

>  <N_constrained_atoms>  (145) 
19.0

>  <ref_url>  (145) 
nan

>  <method>  (145) 
nan

>  <comRMSD>  (145) 
0.563787

>  <N_unconstrained_atoms>  (145) 
2.0

>  <∆∆G>  (145) 
-12.164898

>  <runtime>  (145) 
29.029646

>  <generation_date>  (145) 
nan

$$$$
1VHU_0_A_α-mArh-x0742_0_A_α
     RDKit          3D

 33 36  0  0  0  0  0  0  0  0999 V2000
    0.1500   18.7810   -8.7320 O   0  0  0  0  0  0  0  0  0  0  0  0
   -0.0990   19.9060   -7.6160 S   0  0  0  0  0  0  0  0  0  0  0  0
   -0.7730   19.3080   -6.2670 O   0  0  0  0  0  0  0  0  0  0  0  0
    1.2150   20.8220   -7.4060 O   0  0  0  0  0  0  0  0  0  0  0  0
   -1.2740   21.0520   -8.3190 C   0  0  0  0  0  0  0  0  0  0  0  0
   -1.9860   21.8990   -7.2810 C   0  0  0  0  0  0  0  0  0  0  0  0
   -0.5410   17.9660   -5.7940 C   0  0  0  0  0  0  0  0  0  0  0  0
   -1.9050   17.2960   -5.5260 C   0  0  0  0  0  0  0  0  0  0  0  0
   -3.4030   22.2260   -7.5570 N   0  0  0  0  0  0  0  0  0  0  0  0
   -1.9510   15.9360   -4.7580 C   0  0  0  0  0  0  0  0  0  0  0  0
   -3.5900   22.6720   -8.9550 C   0  0  0  0  0  0  0  0  0  0  0  0
   -3.8030   23.3580   -6.6930 C   0  0  0  0  0  0  0  0  0  0  0  0
   -3.3400   15.6080   -4.1500 C   0  0  0  0  0  0  0  0  0  0  0  0
   -5.0220   23.1170   -9.2520 C   0  0  0  0  0  0  0  0  0  0  0  0
   -5.2180   23.8320   -6.9840 C   0  0  0  0  0  0  0  0  0  0  0  0
   -3.4490   14.3730   -3.2340 C   0  0  0  0  0  0  0  0  0  0  0  0
   -5.4380   24.1570   -8.3630 O   0  0  0  0  0  0  0  0  0  0  0  0
   -4.6160   14.4400   -2.1770 C   0  0  1  0  0  0  0  0  0  0  0  0
   -4.4630   13.4570   -0.9740 C   0  0  2  0  0  0  0  0  0  0  0  0
   -4.7120   15.8090   -1.5440 C   0  0  0  0  0  0  0  0  0  0  0  0
   -5.4300   12.2570   -0.9940 C   0  0  0  0  0  0  0  0  0  0  0  0
   -4.6140   14.2820    0.3520 C   0  0  2  0  0  0  0  0  0  0  0  0
   -4.3460   15.7070   -0.0800 C   0  0  0  0  0  0  0  0  0  0  0  0
   -3.1000   12.8510   -1.1880 C   0  0  0  0  0  0  0  0  0  0  0  0
   -5.4580   11.4840   -1.9480 O   0  0  0  0  0  0  0  0  0  0  0  0
   -6.3380   12.0160    0.1950 C   0  0  0  0  0  0  0  0  0  0  0  0
   -2.0080   13.5070   -0.3960 C   0  0  0  0  0  0  0  0  0  0  0  0
   -3.6260   13.9020    1.4570 C   0  0  0  0  0  0  0  0  0  0  0  0
   -0.7420   13.6250   -0.9310 C   0  0  0  0  0  0  0  0  0  0  0  0
   -2.2460   14.0100    0.8910 C   0  0  0  0  0  0  0  0  0  0  0  0
   -1.2960   14.5930    1.6400 N   0  0  0  0  0  0  0  0  0  0  0  0
    0.2450   14.2210   -0.1850 C   0  0  0  0  0  0  0  0  0  0  0  0
   -0.0770   14.6790    1.0780 C   0  0  0  0  0  0  0  0  0  0  0  0
  2  1  1  0
  2  3  1  0
  2  4  1  0
  2  5  1  0
  5  6  1  0
  3  7  1  0
  7  8  1  0
  6  9  1  0
  8 10  1  0
  9 11  1  0
  9 12  1  0
 10 13  1  0
 11 14  1  0
 12 15  1  0
 13 16  1  0
 14 17  1  0
 15 17  1  0
 18 16  1  6
 18 19  1  0
 18 20  1  0
 19 21  1  6
 19 22  1  0
 20 23  1  0
 22 23  1  6
 19 24  1  0
 21 25  2  0
 21 26  1  0
 24 27  1  0
 22 28  1  0
 27 29  2  0
 27 30  1  0
 28 30  1  0
 30 31  2  0
 29 32  1  0
 31 33  1  0
 32 33  2  0
M  END
>  <%Rank>  (146) 
11.068702

>  <N_hits>  (146) 
2

>  <submitter_name>  (146) 
nan

>  <original SMILES>  (146) 
nan

>  <∆G_unbound>  (146) 
0.482168

>  <∆G_bound>  (146) 
-17.53006

>  <regarded>  (146) 
1VHU_0_A_α,mArh-x0742_0_A_α

>  <ref_pdb>  (146) 
nan

>  <smiles>  (146) 
CC(=O)C12Cc3cccnc3CC1CCC2CCCCCOS(O)(O)CCN1CCOCC1

>  <submitter_email>  (146) 
nan

>  <disregarded>  (146) 


>  <LE>  (146) 
-0.545825

>  <submitter_institution>  (146) 
nan

>  <ref_mols>  (146) 
1VHU_0_A,mArh-x0742_0_A

>  <N_constrained_atoms>  (146) 
23.0

>  <ref_url>  (146) 
nan

>  <method>  (146) 
nan

>  <comRMSD>  (146) 
0.454983

>  <N_unconstrained_atoms>  (146) 
10.0

>  <∆∆G>  (146) 
-18.012228

>  <runtime>  (146) 
42.856447

>  <generation_date>  (146) 
nan

$$$$
5CMS_0_E_β-mArh-EU0704_0_A_α
     RDKit          3D

 26 27  0  0  0  0  0  0  0  0999 V2000
   -1.9400   20.0150   -7.5610 O   0  0  0  0  0  0  0  0  0  0  0  0
   -0.3950   19.4620   -7.9080 P   0  0  0  0  0  0  0  0  0  0  0  0
   -0.3460   18.4100   -6.7940 O   0  0  0  0  0  0  0  0  0  0  0  0
    0.8860   20.2610   -7.2570 O   0  0  0  0  0  0  0  0  0  0  0  0
   -0.1050   18.4610   -9.0770 O   0  0  0  0  0  0  0  0  0  0  0  0
   -1.4450   18.0840   -5.5990 P   0  0  0  0  0  0  0  0  0  0  0  0
   -1.4710   16.6380   -4.7240 O   0  0  0  0  0  0  0  0  0  0  0  0
   -2.4680   17.5070   -6.5980 O   0  0  0  0  0  0  0  0  0  0  0  0
   -2.3830   19.3080   -5.1190 O   0  0  0  0  0  0  0  0  0  0  0  0
   -0.6620   16.5640   -3.5910 C   0  0  0  0  0  0  0  0  0  0  0  0
   -1.3030   15.9410   -2.3330 C   0  0  0  0  0  0  0  0  0  0  0  0
   -2.7660   15.6010   -2.5280 C   0  0  0  0  0  0  0  0  0  0  0  0
   -3.6800   15.3170   -1.3340 C   0  0  0  0  0  0  0  0  0  0  0  0
   -3.3430   15.0720    0.0050 C   0  0  0  0  0  0  0  0  0  0  0  0
   -5.0070   15.3020   -1.6730 C   0  0  0  0  0  0  0  0  0  0  0  0
   -5.9630   15.0430   -0.7290 C   0  0  0  0  0  0  0  0  0  0  0  0
   -4.3470   14.8090    0.9480 C   0  0  0  0  0  0  0  0  0  0  0  0
   -5.6990   14.7830    0.5990 C   0  0  0  0  0  0  0  0  0  0  0  0
   -7.3190   14.9760   -0.8510 N   0  0  0  0  0  0  0  0  0  0  0  0
   -6.8860   14.5560    1.2570 N   0  0  0  0  0  0  0  0  0  0  0  0
   -7.8570   14.6850    0.3340 C   0  0  0  0  0  0  0  0  0  0  0  0
   -7.0470   14.2350    2.6530 C   0  0  0  0  0  0  0  0  0  0  0  0
   -7.9150   15.1730    3.4170 C   0  0  0  0  0  0  0  0  0  0  0  0
   -7.6250   15.4080    4.7780 N   0  0  0  0  0  0  0  0  0  0  0  0
   -8.9230   15.7760    2.9100 O   0  0  0  0  0  0  0  0  0  0  0  0
   -8.5580   16.0330    5.6800 C   0  0  0  0  0  0  0  0  0  0  0  0
  1  2  1  0
  2  3  1  0
  2  4  1  0
  2  5  1  0
  3  6  1  0
  6  7  1  0
  6  8  1  0
  6  9  1  0
  7 10  1  0
 10 11  1  0
 11 12  1  0
 12 13  1  0
 13 14  2  0
 13 15  1  0
 15 16  2  0
 14 17  1  0
 16 18  1  0
 17 18  2  0
 16 19  1  0
 18 20  1  0
 19 21  2  0
 20 21  1  0
 20 22  1  0
 22 23  1  0
 23 24  1  0
 23 25  2  0
 24 26  1  0
M  CHG  2   4  -1   8  -1
M  END
>  <%Rank>  (147) 
11.145038

>  <N_hits>  (147) 
2

>  <submitter_name>  (147) 
nan

>  <original SMILES>  (147) 
nan

>  <∆G_unbound>  (147) 
1.035241

>  <∆G_bound>  (147) 
-11.578305

>  <regarded>  (147) 
5CMS_0_E_β,mArh-EU0704_0_A_α

>  <ref_pdb>  (147) 
nan

>  <smiles>  (147) 
CNC(=O)Cn1cnc2cc(CCCO[PH]([O-])(O)O[PH]([O-])(O)O)ccc21

>  <submitter_email>  (147) 
nan

>  <disregarded>  (147) 


>  <LE>  (147) 
-0.485136

>  <submitter_institution>  (147) 
nan

>  <ref_mols>  (147) 
5CMS_0_E,mArh-EU0704_0_A

>  <N_constrained_atoms>  (147) 
23.0

>  <ref_url>  (147) 
nan

>  <method>  (147) 
nan

>  <comRMSD>  (147) 
0.578178

>  <N_unconstrained_atoms>  (147) 
3.0

>  <∆∆G>  (147) 
-12.613547

>  <runtime>  (147) 
65.914901

>  <generation_date>  (147) 
nan

$$$$
mArh-1hjz_B_0_B_α-5CMS_0_F_α
     RDKit          3D

 20 21  0  0  0  0  0  0  0  0999 V2000
    1.0090   21.1490   -7.8280 O   0  0  0  0  0  0  0  0  0  0  0  0
   -0.1540   20.2640   -7.8700 S   0  0  0  0  0  0  0  0  0  0  0  0
   -0.0590   19.1160   -8.7720 O   0  0  0  0  0  0  0  0  0  0  0  0
   -0.5980   19.8260   -6.5520 O   0  0  0  0  0  0  0  0  0  0  0  0
   -1.5380   21.2710   -8.4800 C   0  0  1  0  0  0  0  0  0  0  0  0
   -2.0440   22.1660   -7.3620 C   0  0  0  0  0  0  0  0  0  0  0  0
   -1.3600   21.9340   -9.8910 C   0  0  1  0  0  0  0  0  0  0  0  0
   -3.4870   22.4620   -7.4450 N   0  0  0  0  0  0  0  0  0  0  0  0
   -2.6310   22.2000  -10.5500 O   0  0  0  0  0  0  0  0  0  0  0  0
   -0.4650   23.2040  -10.0710 C   0  0  1  0  0  0  0  0  0  0  0  0
    0.4780   23.2690  -11.1280 O   0  0  0  0  0  0  0  0  0  0  0  0
   -3.8970   22.6280   -8.8410 C   0  0  0  0  0  0  0  0  0  0  0  0
   -3.7980   23.6670   -6.6840 C   0  0  0  0  0  0  0  0  0  0  0  0
   -2.6000   23.5130  -11.0860 C   0  0  2  0  0  0  0  0  0  0  0  0
   -1.4770   24.2550  -10.3830 C   0  0  2  0  0  0  0  0  0  0  0  0
   -3.8650   24.1220  -10.8500 O   0  0  0  0  0  0  0  0  0  0  0  0
   -0.9400   25.2790  -11.2490 O   0  0  0  0  0  0  0  0  0  0  0  0
   -5.3400   23.1220   -9.0060 C   0  0  0  0  0  0  0  0  0  0  0  0
   -5.2480   24.0400   -6.8580 C   0  0  0  0  0  0  0  0  0  0  0  0
   -5.5970   24.2800   -8.2190 O   0  0  0  0  0  0  0  0  0  0  0  0
  1  2  2  0
  2  3  2  0
  2  4  1  0
  2  5  1  0
  5  6  1  1
  5  7  1  0
  6  8  1  0
  7  9  1  1
  7 10  1  0
 10 11  1  6
  8 12  1  0
  8 13  1  0
  9 14  1  0
 10 15  1  0
 14 15  1  0
 14 16  1  1
 15 17  1  6
 12 18  1  0
 13 19  1  0
 18 20  1  0
 19 20  1  0
M  CHG  1   4  -1
M  END
>  <%Rank>  (148) 
11.221374

>  <N_hits>  (148) 
2

>  <submitter_name>  (148) 
nan

>  <original SMILES>  (148) 
nan

>  <∆G_unbound>  (148) 
1.91821

>  <∆G_bound>  (148) 
-5.117373

>  <regarded>  (148) 
mArh-1hjz_B_0_B_α,5CMS_0_F_α

>  <ref_pdb>  (148) 
nan

>  <smiles>  (148) 
O=S(=O)([O-])C(CN1CCOCC1)C1OC(O)C(O)C1O

>  <submitter_email>  (148) 
nan

>  <disregarded>  (148) 


>  <LE>  (148) 
-0.351779

>  <submitter_institution>  (148) 
nan

>  <ref_mols>  (148) 
mArh-1hjz_B_0_B,5CMS_0_F

>  <N_constrained_atoms>  (148) 
20.0

>  <ref_url>  (148) 
nan

>  <method>  (148) 
nan

>  <comRMSD>  (148) 
0.525761

>  <N_unconstrained_atoms>  (148) 
0.0

>  <∆∆G>  (148) 
-7.035583

>  <runtime>  (148) 
35.795977

>  <generation_date>  (148) 
nan

$$$$
mArh-x0918_4_B_α-mArh-6vxs_B_0_B_α
     RDKit          3D

 26 27  0  0  0  0  0  0  0  0999 V2000
   14.2110   23.3940   13.4180 N   0  0  0  0  0  0  0  0  0  0  0  0
   13.5500   22.1670   13.3580 C   0  0  0  0  0  0  0  0  0  0  0  0
   14.2100   21.2640   12.5250 C   0  0  0  0  0  0  0  0  0  0  0  0
   12.3420   22.0360   14.1350 C   0  0  0  0  0  0  0  0  0  0  0  0
   12.8160   23.5010   14.4180 C   0  0  0  0  0  0  0  0  0  0  0  0
   12.0760   20.6440   13.7390 C   0  0  0  0  0  0  0  0  0  0  0  0
   13.7400   20.0260   12.3340 C   0  0  0  0  0  0  0  0  0  0  0  0
   12.2080   24.6530   13.5540 C   0  0  0  0  0  0  0  0  0  0  0  0
   12.6560   19.6800   12.9440 N   0  0  0  0  0  0  0  0  0  0  0  0
   12.3370   26.1480   13.9540 C   0  0  0  0  0  0  0  0  0  0  0  0
   11.1880   27.0110   13.3180 C   0  0  0  0  0  0  0  0  0  0  0  0
   11.5880   28.2680   12.4720 C   0  0  0  0  0  0  0  0  0  0  0  0
   10.9750   28.3770   11.0320 C   0  0  0  0  0  0  0  0  0  0  0  0
   11.4620   29.5740   10.2820 N   0  0  0  0  0  0  0  0  0  0  0  0
   10.3800   30.3620    9.4950 S   0  0  1  0  0  0  0  0  0  0  0  0
   10.9310   31.8220    8.6320 C   0  0  0  0  0  0  0  0  0  0  0  0
    9.1930   29.8470    8.8770 O   0  0  0  0  0  0  0  0  0  0  0  0
    9.9290   31.1010   10.8510 O   0  0  0  0  0  0  0  0  0  0  0  0
    9.7770   32.6980    8.1410 C   0  0  0  0  0  0  0  0  0  0  0  0
    9.3410   33.6800    9.1320 N   0  0  0  0  0  0  0  0  0  0  0  0
    8.5200   34.7910    8.6200 C   0  0  0  0  0  0  0  0  0  0  0  0
    8.3020   35.7690    9.7880 C   0  0  0  0  0  0  0  0  0  0  0  0
    7.1820   34.3140    8.0050 C   0  0  0  0  0  0  0  0  0  0  0  0
    7.4500   36.9510    9.3800 C   0  0  0  0  0  0  0  0  0  0  0  0
    6.1570   35.4400    7.7780 C   0  0  0  0  0  0  0  0  0  0  0  0
    6.0900   36.4800    8.8920 C   0  0  0  0  0  0  0  0  0  0  0  0
  1  2  1  0
  2  3  2  0
  2  4  1  0
  4  5  1  0
  4  6  2  0
  3  7  1  0
  5  8  1  0
  6  9  1  0
  7  9  2  0
  8 10  1  0
 10 11  1  0
 11 12  1  0
 12 13  1  0
 13 14  1  0
 14 15  2  0
 15 16  1  0
 15 17  2  0
 15 18  1  1
 16 19  1  0
 19 20  1  0
 20 21  1  0
 21 22  1  0
 21 23  1  0
 22 24  1  0
 23 25  1  0
 24 26  1  0
 25 26  1  0
M  END
>  <%Rank>  (149) 
11.29771

>  <N_hits>  (149) 
2

>  <submitter_name>  (149) 
nan

>  <original SMILES>  (149) 
nan

>  <∆G_unbound>  (149) 
0.158503

>  <∆G_bound>  (149) 
-8.992054

>  <regarded>  (149) 
mArh-x0918_4_B_α,mArh-6vxs_B_0_B_α

>  <ref_pdb>  (149) 
nan

>  <smiles>  (149) 
Nc1ccncc1CCCCCCN=S(=O)(O)CCNC1CCCCC1

>  <submitter_email>  (149) 
nan

>  <disregarded>  (149) 


>  <LE>  (149) 
-0.351944

>  <submitter_institution>  (149) 
nan

>  <ref_mols>  (149) 
mArh-x0918_4_B,mArh-6vxs_B_0_B

>  <N_constrained_atoms>  (149) 
20.0

>  <ref_url>  (149) 
nan

>  <method>  (149) 
nan

>  <comRMSD>  (149) 
0.376507

>  <N_unconstrained_atoms>  (149) 
6.0

>  <∆∆G>  (149) 
-9.150557

>  <runtime>  (149) 
47.387506

>  <generation_date>  (149) 
nan

$$$$
5MQX_0_A_γ-mArh-x0967_0_A_α
     RDKit          3D

 20 22  0  0  0  0  0  0  0  0999 V2000
    0.1440   10.3870   -2.2220 O   0  0  0  0  0  0  0  0  0  0  0  0
   -0.9250   11.3240   -2.3270 C   0  0  1  0  0  0  0  0  0  0  0  0
   -0.5010   12.6940   -1.7650 C   0  0  0  0  0  0  0  0  0  0  0  0
   -1.2550   11.6580   -3.7720 C   0  0  2  0  0  0  0  0  0  0  0  0
   -0.0400   11.6900   -4.5350 O   0  0  0  0  0  0  0  0  0  0  0  0
   -0.7790   13.6680   -2.7850 O   0  0  0  0  0  0  0  0  0  0  0  0
   -1.8320   13.0500   -3.5270 C   0  0  1  0  0  0  0  0  0  0  0  0
   -2.3050   13.9090   -4.6980 C   0  0  0  0  0  0  0  0  0  0  0  0
   -3.3040   14.9500   -4.1650 C   0  0  0  0  0  0  0  0  0  0  0  0
   -2.7530   15.5770   -2.8790 C   0  0  0  0  0  0  0  0  0  0  0  0
   -3.5920   15.3520   -1.6320 C   0  0  0  0  0  0  0  0  0  0  0  0
   -4.9240   15.0920   -1.7670 N   0  0  0  0  0  0  0  0  0  0  0  0
   -2.9760   15.4190   -0.3900 C   0  0  0  0  0  0  0  0  0  0  0  0
   -5.6750   14.8990   -0.6730 C   0  0  0  0  0  0  0  0  0  0  0  0
   -3.7400   15.2190    0.7480 C   0  0  0  0  0  0  0  0  0  0  0  0
   -6.9800   14.6490   -0.8230 N   0  0  0  0  0  0  0  0  0  0  0  0
   -5.1040   14.9570    0.6150 C   0  0  0  0  0  0  0  0  0  0  0  0
   -5.9200   14.7520    1.7340 C   0  0  0  0  0  0  0  0  0  0  0  0
   -7.7500   14.4550    0.2750 C   0  0  0  0  0  0  0  0  0  0  0  0
   -7.2680   14.4960    1.5670 C   0  0  0  0  0  0  0  0  0  0  0  0
  2  1  1  6
  2  3  1  0
  2  4  1  0
  4  5  1  6
  3  6  1  0
  4  7  1  0
  6  7  1  0
  7  8  1  6
  8  9  1  0
  9 10  1  0
 10 11  1  0
 11 12  2  0
 11 13  1  0
 12 14  1  0
 13 15  2  0
 14 16  2  0
 14 17  1  0
 15 17  1  0
 17 18  2  0
 16 19  1  0
 18 20  1  0
 19 20  2  0
M  END
>  <%Rank>  (150) 
11.374046

>  <N_hits>  (150) 
2

>  <submitter_name>  (150) 
nan

>  <original SMILES>  (150) 
nan

>  <∆G_unbound>  (150) 
0.041762

>  <∆G_bound>  (150) 
-5.693159

>  <regarded>  (150) 
5MQX_0_A_γ,mArh-x0967_0_A_α

>  <ref_pdb>  (150) 
nan

>  <smiles>  (150) 
OC1COC(CCCc2ccc3cccnc3n2)C1O

>  <submitter_email>  (150) 
nan

>  <disregarded>  (150) 


>  <LE>  (150) 
-0.286746

>  <submitter_institution>  (150) 
nan

>  <ref_mols>  (150) 
5MQX_0_A,mArh-x0967_0_A

>  <N_constrained_atoms>  (150) 
18.0

>  <ref_url>  (150) 
nan

>  <method>  (150) 
nan

>  <comRMSD>  (150) 
0.39932

>  <N_unconstrained_atoms>  (150) 
2.0

>  <∆∆G>  (150) 
-5.734922

>  <runtime>  (150) 
36.346925

>  <generation_date>  (150) 
nan

$$$$
mArh-5cms_E_5_E_β-6WOJ_0_A_δ
     RDKit          3D

 20 21  0  0  0  0  0  0  0  0999 V2000
   -1.7310   20.1440   -7.9720 O   0  0  0  0  0  0  0  0  0  0  0  0
   -0.3040   19.5130   -7.6840 P   0  0  0  0  0  0  0  0  0  0  0  0
   -0.4380   18.4300   -6.5320 O   0  0  0  0  0  0  0  0  0  0  0  0
    0.7550   20.5410   -7.5670 O   0  0  0  0  0  0  0  0  0  0  0  0
   -0.0320   18.5830   -8.9450 O   0  0  0  0  0  0  0  0  0  0  0  0
   -1.7440   17.8110   -5.8680 P   0  0  2  0  0  0  0  0  0  0  0  0
   -1.2970   16.6420   -4.8580 O   0  0  0  0  0  0  0  0  0  0  0  0
   -2.7720   17.3850   -6.8320 O   0  0  0  0  0  0  0  0  0  0  0  0
   -2.2240   18.9880   -4.9140 O   0  0  0  0  0  0  0  0  0  0  0  0
   -2.2750   15.7300   -4.3060 C   0  0  0  0  0  0  0  0  0  0  0  0
   -2.0470   15.5580   -2.7780 C   0  0  2  0  0  0  0  0  0  0  0  0
   -1.0360   14.5830   -2.3820 N   0  0  0  0  0  0  0  0  0  0  0  0
   -3.1580   15.1570   -1.9170 N   0  0  0  0  0  0  0  0  0  0  0  0
   -1.0440   14.8810   -0.9620 C   0  0  1  0  0  0  0  0  0  0  0  0
   -2.4470   15.4740   -0.6620 C   0  0  2  0  0  0  0  0  0  0  0  0
   -0.7350   13.7430   -0.1810 N   0  0  0  0  0  0  0  0  0  0  0  0
   -2.9390   15.1780    0.7950 C   0  0  1  0  0  0  0  0  0  0  0  0
   -4.2300   14.5520    0.9270 N   0  0  0  0  0  0  0  0  0  0  0  0
   -0.7100   14.1630    1.2000 C   0  0  0  0  0  0  0  0  0  0  0  0
   -2.0620   14.4010    1.6740 N   0  0  0  0  0  0  0  0  0  0  0  0
  1  2  1  0
  2  3  1  0
  2  4  2  0
  2  5  1  0
  3  6  1  0
  6  7  1  0
  6  8  2  0
  6  9  1  1
  7 10  1  0
 11 10  1  6
 11 12  1  0
 11 13  1  0
 14 12  1  6
 15 13  1  6
 14 15  1  0
 14 16  1  0
 15 17  1  0
 17 18  1  6
 16 19  1  0
 17 20  1  0
 19 20  1  0
M  END
>  <%Rank>  (151) 
11.450382

>  <N_hits>  (151) 
2

>  <submitter_name>  (151) 
nan

>  <original SMILES>  (151) 
nan

>  <∆G_unbound>  (151) 
1.347638

>  <∆G_bound>  (151) 
-9.63952

>  <regarded>  (151) 
mArh-5cms_E_5_E_β,6WOJ_0_A_δ

>  <ref_pdb>  (151) 
nan

>  <smiles>  (151) 
NC1NCNC2NC(COP(=O)(O)OP(=O)(O)O)NC12

>  <submitter_email>  (151) 
nan

>  <disregarded>  (151) 


>  <LE>  (151) 
-0.549358

>  <submitter_institution>  (151) 
nan

>  <ref_mols>  (151) 
mArh-5cms_E_5_E,6WOJ_0_A

>  <N_constrained_atoms>  (151) 
19.0

>  <ref_url>  (151) 
nan

>  <method>  (151) 
nan

>  <comRMSD>  (151) 
0.582623

>  <N_unconstrained_atoms>  (151) 
1.0

>  <∆∆G>  (151) 
-10.987158

>  <runtime>  (151) 
35.6489

>  <generation_date>  (151) 
nan

$$$$
mArh-x0967_0_A_α-5CB5_0_P_γ
     RDKit          3D

 20 22  0  0  0  0  0  0  0  0999 V2000
   -1.8580   12.9400   -3.6830 O   0  0  0  0  0  0  0  0  0  0  0  0
   -2.9880   13.8040   -3.9000 C   0  0  0  0  0  0  0  0  0  0  0  0
   -3.0320   15.0930   -3.0740 C   0  0  0  0  0  0  0  0  0  0  0  0
   -0.5270   13.4920   -3.7280 C   0  0  2  0  0  0  0  0  0  0  0  0
   -0.3880   14.5740   -2.6520 C   0  0  0  0  0  0  0  0  0  0  0  0
   -0.1600   14.2180   -5.0250 C   0  0  2  0  0  0  0  0  0  0  0  0
    1.1830   13.8280   -5.3440 O   0  0  0  0  0  0  0  0  0  0  0  0
   -3.7530   14.9930   -1.7420 C   0  0  0  0  0  0  0  0  0  0  0  0
   -0.0610   15.8300   -3.2680 O   0  0  0  0  0  0  0  0  0  0  0  0
   -0.3090   15.7070   -4.6720 C   0  0  1  0  0  0  0  0  0  0  0  0
    0.5900   16.6880   -5.4030 C   0  0  0  0  0  0  0  0  0  0  0  0
   -5.1020   14.8710   -1.7900 N   0  0  0  0  0  0  0  0  0  0  0  0
   -3.0600   15.0300   -0.5360 C   0  0  0  0  0  0  0  0  0  0  0  0
   -5.8030   14.7830   -0.6610 C   0  0  0  0  0  0  0  0  0  0  0  0
   -3.7740   14.9440    0.6480 C   0  0  0  0  0  0  0  0  0  0  0  0
   -7.1290   14.6590   -0.7510 N   0  0  0  0  0  0  0  0  0  0  0  0
   -5.1660   14.8170    0.5920 C   0  0  0  0  0  0  0  0  0  0  0  0
   -5.9390   14.7230    1.7490 C   0  0  0  0  0  0  0  0  0  0  0  0
   -7.8590   14.5660    0.3840 C   0  0  0  0  0  0  0  0  0  0  0  0
   -7.3140   14.5930    1.6500 C   0  0  0  0  0  0  0  0  0  0  0  0
  1  2  1  0
  2  3  1  0
  4  1  1  6
  4  5  1  0
  4  6  1  0
  6  7  1  1
  3  8  1  0
  5  9  1  0
  6 10  1  0
  9 10  1  0
 10 11  1  6
  8 12  2  0
  8 13  1  0
 12 14  1  0
 13 15  2  0
 14 16  2  0
 14 17  1  0
 15 17  1  0
 17 18  2  0
 16 19  1  0
 18 20  1  0
 19 20  2  0
M  END
>  <%Rank>  (152) 
11.526718

>  <N_hits>  (152) 
2

>  <submitter_name>  (152) 
nan

>  <original SMILES>  (152) 
nan

>  <∆G_unbound>  (152) 
0.739354

>  <∆G_bound>  (152) 
-4.577528

>  <regarded>  (152) 
mArh-x0967_0_A_α,5CB5_0_P_γ

>  <ref_pdb>  (152) 
nan

>  <smiles>  (152) 
CC1OCC(OCCc2ccc3cccnc3n2)C1O

>  <submitter_email>  (152) 
nan

>  <disregarded>  (152) 


>  <LE>  (152) 
-0.265844

>  <submitter_institution>  (152) 
nan

>  <ref_mols>  (152) 
mArh-x0967_0_A,5CB5_0_P

>  <N_constrained_atoms>  (152) 
18.0

>  <ref_url>  (152) 
nan

>  <method>  (152) 
nan

>  <comRMSD>  (152) 
0.392241

>  <N_unconstrained_atoms>  (152) 
2.0

>  <∆∆G>  (152) 
-5.316882

>  <runtime>  (152) 
24.988424

>  <generation_date>  (152) 
nan

$$$$
mArh-5l9k_B_0_B_α-mArh-6mea_B_0_B_γ
     RDKit          3D

 22 23  0  0  0  0  0  0  0  0999 V2000
   -2.3690   21.8290   -8.5770 C   0  0  0  0  0  0  0  0  0  0  0  0
   -3.8780   21.9710   -8.6750 C   0  0  1  0  0  0  0  0  0  0  0  0
   -4.5080   21.1140   -7.6310 N   0  0  0  0  0  0  0  0  0  0  0  0
   -4.3140   23.4160   -8.4030 C   0  0  1  0  0  0  0  0  0  0  0  0
   -4.6160   24.1410   -9.5820 O   0  0  0  0  0  0  0  0  0  0  0  0
   -3.5680   20.9680   -6.4880 C   0  0  0  0  0  0  0  0  0  0  0  0
   -5.7670   21.8050   -7.3380 C   0  0  1  0  0  0  0  0  0  0  0  0
   -5.5980   23.3110   -7.6040 C   0  0  1  0  0  0  0  0  0  0  0  0
   -6.8870   21.3080   -8.0550 O   0  0  0  0  0  0  0  0  0  0  0  0
   -5.5610   24.1160   -6.4250 O   0  0  0  0  0  0  0  0  0  0  0  0
   -2.7400   19.6570   -6.4380 C   0  0  0  0  0  0  0  0  0  0  0  0
   -1.3610   19.6230   -7.1140 C   0  0  0  0  0  0  0  0  0  0  0  0
   -0.2610   19.1390   -6.1670 C   0  0  0  0  0  0  0  0  0  0  0  0
    0.1380   17.7180   -6.3280 C   0  0  0  0  0  0  0  0  0  0  0  0
    0.7030   16.9590   -5.1210 C   0  0  0  0  0  0  0  0  0  0  0  0
   -0.1510   15.8180   -4.5590 C   0  0  2  0  0  0  0  0  0  0  0  0
    0.0840   15.6980   -3.1460 O   0  0  0  0  0  0  0  0  0  0  0  0
    0.0600   14.3800   -5.0490 C   0  0  1  0  0  0  0  0  0  0  0  0
    1.3840   13.9030   -5.2020 O   0  0  0  0  0  0  0  0  0  0  0  0
   -0.6300   14.5170   -2.7620 C   0  0  0  0  0  0  0  0  0  0  0  0
   -0.6630   13.5870   -3.9740 C   0  0  1  0  0  0  0  0  0  0  0  0
   -1.9700   13.2140   -4.3780 O   0  0  0  0  0  0  0  0  0  0  0  0
  2  1  1  1
  2  3  1  0
  2  4  1  0
  4  5  1  6
  3  6  1  0
  3  7  1  0
  4  8  1  0
  7  8  1  0
  7  9  1  6
  8 10  1  1
  6 11  1  0
 11 12  1  0
 12 13  1  0
 13 14  1  0
 14 15  1  0
 16 15  1  6
 16 17  1  0
 16 18  1  0
 18 19  1  1
 17 20  1  0
 18 21  1  0
 20 21  1  0
 21 22  1  6
M  END
>  <%Rank>  (153) 
11.603053

>  <N_hits>  (153) 
2

>  <submitter_name>  (153) 
nan

>  <original SMILES>  (153) 
nan

>  <∆G_unbound>  (153) 
0.355785

>  <∆G_bound>  (153) 
-10.536205

>  <regarded>  (153) 
mArh-5l9k_B_0_B_α,mArh-6mea_B_0_B_γ

>  <ref_pdb>  (153) 
nan

>  <smiles>  (153) 
CC1C(O)C(O)C(O)N1CCCCCCC1OCC(O)C1O

>  <submitter_email>  (153) 
nan

>  <disregarded>  (153) 


>  <LE>  (153) 
-0.49509

>  <submitter_institution>  (153) 
nan

>  <ref_mols>  (153) 
mArh-5l9k_B_0_B,mArh-6mea_B_0_B

>  <N_constrained_atoms>  (153) 
17.0

>  <ref_url>  (153) 
nan

>  <method>  (153) 
nan

>  <comRMSD>  (153) 
0.394685

>  <N_unconstrained_atoms>  (153) 
5.0

>  <∆∆G>  (153) 
-10.891991

>  <runtime>  (153) 
44.331384

>  <generation_date>  (153) 
nan

$$$$
5CMS_0_O_δ-mArh-5cms_K_10_K_β
     RDKit          3D

 21 22  0  0  0  0  0  0  0  0999 V2000
   -3.8110   15.4300    1.6550 N   0  0  0  0  0  0  0  0  0  0  0  0
   -2.4900   15.4720    1.0240 C   0  0  2  0  0  0  0  0  0  0  0  0
   -2.5160   15.3610   -0.4900 C   0  0  1  0  0  0  0  0  0  0  0  0
   -1.5780   14.5400    1.6410 N   0  0  0  0  0  0  0  0  0  0  0  0
   -1.4090   14.4380   -0.9040 C   0  0  1  0  0  0  0  0  0  0  0  0
   -3.6560   14.7650   -1.1870 N   0  0  0  0  0  0  0  0  0  0  0  0
   -0.2380   14.4550    1.0650 C   0  0  0  0  0  0  0  0  0  0  0  0
   -1.5860   14.5650   -2.3360 N   0  0  0  0  0  0  0  0  0  0  0  0
   -3.0450   14.4790   -2.4990 C   0  0  0  0  0  0  0  0  0  0  0  0
   -0.1980   14.9290   -0.3160 N   0  0  0  0  0  0  0  0  0  0  0  0
   -0.9870   15.6850   -3.0580 C   0  0  0  0  0  0  0  0  0  0  0  0
   -1.7530   16.2410   -4.2750 C   0  0  0  0  0  0  0  0  0  0  0  0
   -0.9290   17.0190   -5.1190 O   0  0  0  0  0  0  0  0  0  0  0  0
   -1.5970   18.1400   -6.0530 P   0  0  1  0  0  0  0  0  0  0  0  0
   -0.3530   18.9880   -6.5130 O   0  0  0  0  0  0  0  0  0  0  0  0
   -2.5570   17.6070   -7.0440 O   0  0  0  0  0  0  0  0  0  0  0  0
   -2.2980   19.1410   -5.0470 O   0  0  0  0  0  0  0  0  0  0  0  0
   -0.1860   19.7770   -7.8490 P   0  0  0  0  0  0  0  0  0  0  0  0
   -1.6320   20.2990   -8.2710 O   0  0  0  0  0  0  0  0  0  0  0  0
    0.7640   20.9190   -7.8490 O   0  0  0  0  0  0  0  0  0  0  0  0
    0.0690   18.6420   -8.9250 O   0  0  0  0  0  0  0  0  0  0  0  0
  2  1  1  1
  2  3  1  0
  2  4  1  0
  3  5  1  0
  3  6  1  1
  4  7  1  0
  5  8  1  0
  6  9  1  0
  8  9  1  0
  5 10  1  6
  7 10  1  0
  8 11  1  0
 11 12  1  0
 12 13  1  0
 13 14  1  0
 14 15  1  0
 14 16  2  0
 14 17  1  1
 15 18  1  0
 18 19  1  0
 18 20  2  0
 18 21  1  0
M  END
>  <%Rank>  (154) 
11.679389

>  <N_hits>  (154) 
2

>  <submitter_name>  (154) 
nan

>  <original SMILES>  (154) 
nan

>  <∆G_unbound>  (154) 
5.739235

>  <∆G_bound>  (154) 
-9.381848

>  <regarded>  (154) 
5CMS_0_O_δ,mArh-5cms_K_10_K_β

>  <ref_pdb>  (154) 
nan

>  <smiles>  (154) 
NC1NCNC2C1NCN2CCOP(=O)(O)OP(=O)(O)O

>  <submitter_email>  (154) 
nan

>  <disregarded>  (154) 


>  <LE>  (154) 
-0.720052

>  <submitter_institution>  (154) 
nan

>  <ref_mols>  (154) 
5CMS_0_O,mArh-5cms_K_10_K

>  <N_constrained_atoms>  (154) 
19.0

>  <ref_url>  (154) 
nan

>  <method>  (154) 
nan

>  <comRMSD>  (154) 
0.643331

>  <N_unconstrained_atoms>  (154) 
2.0

>  <∆∆G>  (154) 
-15.121083

>  <runtime>  (154) 
31.705513

>  <generation_date>  (154) 
nan

$$$$
mArh-x0895_1_A_α-mArh-5cb5_M_1_M_β
     RDKit          3D

 20 20  0  0  0  0  0  0  0  0999 V2000
   -1.7230   14.7690    1.7200 O   0  0  0  0  0  0  0  0  0  0  0  0
   -2.7860   14.7710    1.1090 C   0  0  0  0  0  0  0  0  0  0  0  0
   -2.9470   14.5650   -0.3850 C   0  0  2  0  0  0  0  0  0  0  0  0
   -4.0290   14.9500    1.6330 N   0  0  0  0  0  0  0  0  0  0  0  0
   -1.9520   15.3730   -1.2040 C   0  0  0  0  0  0  0  0  0  0  0  0
   -4.3160   14.9640   -0.5600 N   0  0  0  0  0  0  0  0  0  0  0  0
   -4.9550   14.9050    0.6470 C   0  0  0  0  0  0  0  0  0  0  0  0
   -6.1650   14.8140    0.7880 O   0  0  0  0  0  0  0  0  0  0  0  0
   -2.3230   15.5440   -2.6710 C   0  0  0  0  0  0  0  0  0  0  0  0
   -1.1930   16.0020   -3.5660 C   0  0  0  0  0  0  0  0  0  0  0  0
   -1.7080   16.1770   -4.9740 C   0  0  0  0  0  0  0  0  0  0  0  0
   -0.9650   17.2030   -5.5870 O   0  0  0  0  0  0  0  0  0  0  0  0
   -1.7570   18.4940   -6.0790 P   0  0  1  0  0  0  0  0  0  0  0  0
   -0.6650   19.5300   -6.5020 O   0  0  0  0  0  0  0  0  0  0  0  0
   -2.7880   18.1870   -7.0830 O   0  0  0  0  0  0  0  0  0  0  0  0
   -2.3420   19.2180   -4.7950 O   0  0  0  0  0  0  0  0  0  0  0  0
   -0.2660   19.8230   -7.9670 P   0  0  0  0  0  0  0  0  0  0  0  0
   -1.4740   20.6680   -8.5740 O   0  0  0  0  0  0  0  0  0  0  0  0
    0.0800   18.6700   -8.8290 O   0  0  0  0  0  0  0  0  0  0  0  0
    0.8480   20.9550   -7.8480 O   0  0  0  0  0  0  0  0  0  0  0  0
  1  2  2  0
  2  3  1  0
  2  4  1  0
  3  5  1  6
  3  6  1  0
  4  7  1  0
  6  7  1  0
  7  8  2  0
  5  9  1  0
  9 10  1  0
 10 11  1  0
 11 12  1  0
 12 13  1  0
 13 14  1  0
 13 15  2  0
 13 16  1  1
 14 17  1  0
 17 18  1  0
 17 19  2  0
 17 20  1  0
M  END
>  <%Rank>  (155) 
11.755725

>  <N_hits>  (155) 
2

>  <submitter_name>  (155) 
nan

>  <original SMILES>  (155) 
nan

>  <∆G_unbound>  (155) 
2.656219

>  <∆G_bound>  (155) 
-11.880277

>  <regarded>  (155) 
mArh-x0895_1_A_α,mArh-5cb5_M_1_M_β

>  <ref_pdb>  (155) 
nan

>  <smiles>  (155) 
O=C1NC(=O)C(CCCCOP(=O)(O)OP(=O)(O)O)N1

>  <submitter_email>  (155) 
nan

>  <disregarded>  (155) 


>  <LE>  (155) 
-0.726825

>  <submitter_institution>  (155) 
nan

>  <ref_mols>  (155) 
mArh-x0895_1_A,mArh-5cb5_M_1_M

>  <N_constrained_atoms>  (155) 
16.0

>  <ref_url>  (155) 
nan

>  <method>  (155) 
nan

>  <comRMSD>  (155) 
0.511819

>  <N_unconstrained_atoms>  (155) 
4.0

>  <∆∆G>  (155) 
-14.536496

>  <runtime>  (155) 
38.815542

>  <generation_date>  (155) 
nan

$$$$
mArh-EU0144_0_A_α-mArh-EU0860_0_A_α
     RDKit          3D

 22 23  0  0  0  0  0  0  0  0999 V2000
   -8.3840   14.4740    0.6840 C   0  0  0  0  0  0  0  0  0  0  0  0
   -6.9580   14.6290    0.3290 C   0  0  0  0  0  0  0  0  0  0  0  0
   -6.3680   14.5220   -0.8440 N   0  0  0  0  0  0  0  0  0  0  0  0
   -6.1220   14.9310    1.3610 O   0  0  0  0  0  0  0  0  0  0  0  0
   -4.8930   15.0220    0.7870 C   0  0  0  0  0  0  0  0  0  0  0  0
   -5.0470   14.7740   -0.5560 C   0  0  0  0  0  0  0  0  0  0  0  0
   -3.8900   15.3110    1.6260 N   0  0  0  0  0  0  0  0  0  0  0  0
   -4.0510   14.7540   -1.5680 C   0  0  0  0  0  0  0  0  0  0  0  0
   -3.2030   14.6590   -2.4190 C   0  0  0  0  0  0  0  0  0  0  0  0
   -2.1620   14.4440   -3.4360 C   0  0  0  0  0  0  0  0  0  0  0  0
   -1.6290   12.9990   -3.4530 C   0  0  0  0  0  0  0  0  0  0  0  0
   -1.1160   12.5500   -4.8340 C   0  0  0  0  0  0  0  0  0  0  0  0
   -0.6880   11.0790   -4.8670 C   0  0  0  0  0  0  0  0  0  0  0  0
   -1.7250   10.1160   -5.4810 C   0  0  0  0  0  0  0  0  0  0  0  0
   -1.1830    9.0070   -6.3950 C   0  0  0  0  0  0  0  0  0  0  0  0
   -0.3790    9.4550   -7.5180 N   0  0  0  0  0  0  0  0  0  0  0  0
    0.3640    8.6800   -8.3610 C   0  0  0  0  0  0  0  0  0  0  0  0
   -0.3110   10.7670   -7.8150 N   0  0  0  0  0  0  0  0  0  0  0  0
    0.9520    9.5350   -9.2670 C   0  0  0  0  0  0  0  0  0  0  0  0
    0.4960   10.8060   -8.8770 C   0  0  0  0  0  0  0  0  0  0  0  0
    1.8300    9.2090  -10.3650 C   0  0  0  0  0  0  0  0  0  0  0  0
    2.3550    8.1070  -10.5230 O   0  0  0  0  0  0  0  0  0  0  0  0
  1  2  1  0
  2  3  2  0
  2  4  1  0
  4  5  1  0
  3  6  1  0
  5  6  2  0
  5  7  1  0
  6  8  1  0
  8  9  3  0
  9 10  1  0
 10 11  1  0
 11 12  1  0
 12 13  1  0
 13 14  1  0
 14 15  1  0
 15 16  1  0
 16 17  1  0
 16 18  1  0
 17 19  2  0
 18 20  2  0
 19 20  1  0
 19 21  1  0
 21 22  2  0
M  END
>  <%Rank>  (156) 
11.832061

>  <N_hits>  (156) 
2

>  <submitter_name>  (156) 
nan

>  <original SMILES>  (156) 
nan

>  <∆G_unbound>  (156) 
-0.216074

>  <∆G_bound>  (156) 
-5.565525

>  <regarded>  (156) 
mArh-EU0144_0_A_α,mArh-EU0860_0_A_α

>  <ref_pdb>  (156) 
nan

>  <smiles>  (156) 
Cc1nc(C#CCCCCCCn2cc(C=O)cn2)c(N)o1

>  <submitter_email>  (156) 
nan

>  <disregarded>  (156) 


>  <LE>  (156) 
-0.243157

>  <submitter_institution>  (156) 
nan

>  <ref_mols>  (156) 
mArh-EU0144_0_A,mArh-EU0860_0_A

>  <N_constrained_atoms>  (156) 
17.0

>  <ref_url>  (156) 
nan

>  <method>  (156) 
nan

>  <comRMSD>  (156) 
0.270465

>  <N_unconstrained_atoms>  (156) 
5.0

>  <∆∆G>  (156) 
-5.349451

>  <runtime>  (156) 
35.964633

>  <generation_date>  (156) 
nan

$$$$
mArh-6fx_7_0A_β-4IQY_0_A_α
     RDKit          3D

 17 17  0  0  0  0  0  0  0  0999 V2000
   -1.8590   21.3970   -8.6390 O   0  0  0  0  0  0  0  0  0  0  0  0
   -0.9040   20.2730   -7.9500 P   0  0  1  0  0  0  0  0  0  0  0  0
   -1.4480   19.9570   -6.5000 O   0  0  0  0  0  0  0  0  0  0  0  0
   -3.2610   21.6630   -8.4240 C   0  0  1  0  0  0  0  0  0  0  0  0
   -0.6070   19.0030   -8.6940 O   0  0  0  0  0  0  0  0  0  0  0  0
    0.4670   21.0590   -7.6940 O   0  0  0  0  0  0  0  0  0  0  0  0
   -3.8010   20.9260   -7.3290 O   0  0  0  0  0  0  0  0  0  0  0  0
   -3.6050   23.1540   -8.1480 C   0  0  1  0  0  0  0  0  0  0  0  0
   -1.6780   18.4510   -6.0440 P   0  0  0  0  0  0  0  0  0  0  0  0
   -4.4360   23.7610   -9.1640 O   0  0  0  0  0  0  0  0  0  0  0  0
   -4.8120   21.7130   -6.7040 C   0  0  1  0  0  0  0  0  0  0  0  0
   -4.3310   23.1440   -6.7980 C   0  0  2  0  0  0  0  0  0  0  0  0
   -0.3810   17.6480   -6.4740 O   0  0  0  0  0  0  0  0  0  0  0  0
   -2.0450   18.2280   -4.6450 O   0  0  0  0  0  0  0  0  0  0  0  0
   -2.7600   17.8740   -7.0540 O   0  0  0  0  0  0  0  0  0  0  0  0
   -6.0420   21.5790   -7.4050 O   0  0  0  0  0  0  0  0  0  0  0  0
   -5.4720   24.0200   -6.8000 O   0  0  0  0  0  0  0  0  0  0  0  0
  1  2  1  0
  2  3  1  0
  4  1  1  1
  2  5  2  0
  2  6  1  1
  4  7  1  0
  4  8  1  0
  3  9  1  0
  8 10  1  6
  7 11  1  0
  8 12  1  0
 11 12  1  0
  9 13  1  0
  9 14  2  0
  9 15  1  0
 11 16  1  6
 12 17  1  6
M  END
>  <%Rank>  (157) 
11.908397

>  <N_hits>  (157) 
2

>  <submitter_name>  (157) 
nan

>  <original SMILES>  (157) 
nan

>  <∆G_unbound>  (157) 
1.974322

>  <∆G_bound>  (157) 
-10.514981

>  <regarded>  (157) 
mArh-6fx_7_0A_β,4IQY_0_A_α

>  <ref_pdb>  (157) 
nan

>  <smiles>  (157) 
O=P(O)(O)OP(=O)(O)OC1OC(O)C(O)C1O

>  <submitter_email>  (157) 
nan

>  <disregarded>  (157) 


>  <LE>  (157) 
-0.734665

>  <submitter_institution>  (157) 
nan

>  <ref_mols>  (157) 
mArh-6fx_7_0A,4IQY_0_A

>  <N_constrained_atoms>  (157) 
17.0

>  <ref_url>  (157) 
nan

>  <method>  (157) 
nan

>  <comRMSD>  (157) 
0.664821

>  <N_unconstrained_atoms>  (157) 
0.0

>  <∆∆G>  (157) 
-12.489303

>  <runtime>  (157) 
29.718803

>  <generation_date>  (157) 
nan

$$$$
mArh-5cms_R_17_R_β-1HJZ_0_A_α
     RDKit          3D

 17 17  0  0  0  0  0  0  0  0999 V2000
   -1.4950   20.8990   -8.4930 O   0  0  0  0  0  0  0  0  0  0  0  0
   -0.5930   19.8100   -7.7890 P   0  0  2  0  0  0  0  0  0  0  0  0
   -1.2990   19.3520   -6.4610 O   0  0  0  0  0  0  0  0  0  0  0  0
   -1.9300   21.9650   -7.6480 C   0  0  0  0  0  0  0  0  0  0  0  0
    0.9620   20.2780   -7.4340 N   0  0  0  0  0  0  0  0  0  0  0  0
   -0.3500   18.5600   -8.7390 O   0  0  0  0  0  0  0  0  0  0  0  0
   -3.3780   22.2390   -7.7390 N   0  0  0  0  0  0  0  0  0  0  0  0
   -1.7190   17.8920   -6.0650 P   0  0  0  0  0  0  0  0  0  0  0  0
    1.1940   21.6680   -7.6550 O   0  0  0  0  0  0  0  0  0  0  0  0
   -3.6800   22.7060   -9.1000 C   0  0  0  0  0  0  0  0  0  0  0  0
   -3.7370   23.3210   -6.8030 C   0  0  0  0  0  0  0  0  0  0  0  0
   -0.3590   17.0800   -5.9940 O   0  0  0  0  0  0  0  0  0  0  0  0
   -2.8210   17.2360   -6.7840 O   0  0  0  0  0  0  0  0  0  0  0  0
   -1.9760   18.0000   -4.5130 O   0  0  0  0  0  0  0  0  0  0  0  0
   -5.1460   23.1060   -9.2470 C   0  0  0  0  0  0  0  0  0  0  0  0
   -5.1830   23.7790   -7.0160 C   0  0  0  0  0  0  0  0  0  0  0  0
   -5.4390   24.1890   -8.3670 O   0  0  0  0  0  0  0  0  0  0  0  0
  1  2  1  0
  2  3  1  0
  1  4  1  0
  2  5  2  3
  2  6  1  6
  4  7  1  0
  3  8  1  0
  5  9  1  0
  7 10  1  0
  7 11  1  0
  8 12  1  0
  8 13  2  0
  8 14  1  0
 10 15  1  0
 11 16  1  0
 15 17  1  0
 16 17  1  0
M  END
>  <%Rank>  (158) 
11.984733

>  <N_hits>  (158) 
2

>  <submitter_name>  (158) 
nan

>  <original SMILES>  (158) 
nan

>  <∆G_unbound>  (158) 
1.154443

>  <∆G_bound>  (158) 
-11.602438

>  <regarded>  (158) 
mArh-5cms_R_17_R_β,1HJZ_0_A_α

>  <ref_pdb>  (158) 
nan

>  <smiles>  (158) 
O=P(O)(O)OP(O)(=NO)OCN1CCOCC1

>  <submitter_email>  (158) 
nan

>  <disregarded>  (158) 


>  <LE>  (158) 
-0.750405

>  <submitter_institution>  (158) 
nan

>  <ref_mols>  (158) 
mArh-5cms_R_17_R,1HJZ_0_A

>  <N_constrained_atoms>  (158) 
17.0

>  <ref_url>  (158) 
nan

>  <method>  (158) 
nan

>  <comRMSD>  (158) 
0.672901

>  <N_unconstrained_atoms>  (158) 
0.0

>  <∆∆G>  (158) 
-12.756882

>  <runtime>  (158) 
42.671096

>  <generation_date>  (158) 
nan

$$$$
6MEA_0_A_β-mArh-x0967_0_A_α
     RDKit          3D

 22 23  0  0  0  0  0  0  0  0999 V2000
   -1.4740   20.1500   -7.9510 O   0  0  0  0  0  0  0  0  0  0  0  0
   -0.1210   19.6380   -7.4350 P   0  0  0  0  0  0  0  0  0  0  0  0
   -0.5570   19.0710   -6.0130 O   0  0  0  0  0  0  0  0  0  0  0  0
    0.5310   21.1370   -7.6520 O   0  0  0  0  0  0  0  0  0  0  0  0
   -0.0260   18.5600   -8.7400 O   0  0  0  0  0  0  0  0  0  0  0  0
   -1.9340   18.2480   -5.7230 P   0  0  0  0  0  0  0  0  0  0  0  0
   -2.0330   16.6010   -5.8880 O   0  0  0  0  0  0  0  0  0  0  0  0
   -2.4050   18.3740   -7.1540 O   0  0  0  0  0  0  0  0  0  0  0  0
   -1.5540   17.8990   -4.2880 O   0  0  0  0  0  0  0  0  0  0  0  0
   -1.0520   16.6120   -4.0450 C   0  0  0  0  0  0  0  0  0  0  0  0
   -1.7130   16.0410   -2.8100 C   0  0  0  0  0  0  0  0  0  0  0  0
   -2.6530   14.9020   -2.9040 C   0  0  0  0  0  0  0  0  0  0  0  0
   -3.5760   14.8850   -1.7400 C   0  0  0  0  0  0  0  0  0  0  0  0
   -4.8980   14.6490   -1.8230 N   0  0  0  0  0  0  0  0  0  0  0  0
   -3.0770   15.1330   -0.4560 C   0  0  0  0  0  0  0  0  0  0  0  0
   -5.6950   14.6480   -0.7360 C   0  0  0  0  0  0  0  0  0  0  0  0
   -3.8710   15.1370    0.6680 C   0  0  0  0  0  0  0  0  0  0  0  0
   -7.0320   14.4030   -0.8460 N   0  0  0  0  0  0  0  0  0  0  0  0
   -5.2270   14.8870    0.5340 C   0  0  0  0  0  0  0  0  0  0  0  0
   -6.0650   14.8830    1.6470 C   0  0  0  0  0  0  0  0  0  0  0  0
   -7.8500   14.3920    0.2210 C   0  0  0  0  0  0  0  0  0  0  0  0
   -7.4090   14.6270    1.5020 C   0  0  0  0  0  0  0  0  0  0  0  0
  1  2  1  0
  2  3  1  0
  2  4  1  0
  2  5  1  0
  3  6  1  0
  6  7  1  0
  6  8  1  0
  6  9  1  0
  9 10  1  0
 10 11  1  0
 11 12  1  0
 12 13  1  0
 13 14  2  0
 13 15  1  0
 14 16  1  0
 15 17  2  0
 16 18  2  0
 16 19  1  0
 17 19  1  0
 19 20  2  0
 18 21  1  0
 20 22  1  0
 21 22  2  0
M  CHG  2   4  -1   8  -1
M  END
>  <%Rank>  (159) 
12.061069

>  <N_hits>  (159) 
2

>  <submitter_name>  (159) 
nan

>  <original SMILES>  (159) 
nan

>  <∆G_unbound>  (159) 
2.656887

>  <∆G_bound>  (159) 
-8.680925

>  <regarded>  (159) 
6MEA_0_A_β,mArh-x0967_0_A_α

>  <ref_pdb>  (159) 
nan

>  <smiles>  (159) 
[O-][PH](O)(O)O[PH]([O-])(O)OCCCc1ccc2cccnc2n1

>  <submitter_email>  (159) 
nan

>  <disregarded>  (159) 


>  <LE>  (159) 
-0.515355

>  <submitter_institution>  (159) 
nan

>  <ref_mols>  (159) 
6MEA_0_A,mArh-x0967_0_A

>  <N_constrained_atoms>  (159) 
19.0

>  <ref_url>  (159) 
nan

>  <method>  (159) 
nan

>  <comRMSD>  (159) 
0.519683

>  <N_unconstrained_atoms>  (159) 
3.0

>  <∆∆G>  (159) 
-11.337812

>  <runtime>  (159) 
37.155578

>  <generation_date>  (159) 
nan

$$$$
5CMS_0_C_δ-mArh-5cb5_P_0_P_β
     RDKit          3D

 21 22  0  0  0  0  0  0  0  0999 V2000
   -4.0380   15.5840    1.8000 N   0  0  0  0  0  0  0  0  0  0  0  0
   -2.7910   15.5070    1.0410 C   0  0  2  0  0  0  0  0  0  0  0  0
   -2.8530   14.8880   -0.3350 C   0  0  2  0  0  0  0  0  0  0  0  0
   -1.7520   14.8580    1.7610 N   0  0  0  0  0  0  0  0  0  0  0  0
   -1.4970   15.2040   -0.9430 C   0  0  2  0  0  0  0  0  0  0  0  0
   -3.8070   15.3950   -1.3170 N   0  0  0  0  0  0  0  0  0  0  0  0
   -0.4480   14.8760    1.1090 C   0  0  0  0  0  0  0  0  0  0  0  0
   -1.7160   14.8530   -2.3320 N   0  0  0  0  0  0  0  0  0  0  0  0
   -3.1470   15.0670   -2.5880 C   0  0  0  0  0  0  0  0  0  0  0  0
   -0.5210   14.3940   -0.2620 N   0  0  0  0  0  0  0  0  0  0  0  0
   -0.8020   15.4150   -3.3380 C   0  0  0  0  0  0  0  0  0  0  0  0
   -1.0220   16.8410   -3.8830 C   0  0  0  0  0  0  0  0  0  0  0  0
   -1.0200   16.8820   -5.3010 O   0  0  0  0  0  0  0  0  0  0  0  0
   -1.6040   18.1710   -6.0620 P   0  0  1  0  0  0  0  0  0  0  0  0
   -0.3350   18.9840   -6.5320 O   0  0  0  0  0  0  0  0  0  0  0  0
   -2.6400   17.8190   -7.0530 O   0  0  0  0  0  0  0  0  0  0  0  0
   -2.1880   19.1080   -4.9230 O   0  0  0  0  0  0  0  0  0  0  0  0
   -0.2550   19.8670   -7.8220 P   0  0  0  0  0  0  0  0  0  0  0  0
   -1.7280   20.4430   -8.0730 O   0  0  0  0  0  0  0  0  0  0  0  0
    0.7310   20.9750   -7.8440 O   0  0  0  0  0  0  0  0  0  0  0  0
   -0.0980   18.7650   -8.9490 O   0  0  0  0  0  0  0  0  0  0  0  0
  2  1  1  1
  2  3  1  0
  2  4  1  0
  3  5  1  0
  3  6  1  6
  4  7  1  0
  5  8  1  0
  6  9  1  0
  8  9  1  0
  5 10  1  1
  7 10  1  0
  8 11  1  0
 11 12  1  0
 12 13  1  0
 13 14  1  0
 14 15  1  0
 14 16  2  0
 14 17  1  1
 15 18  1  0
 18 19  1  0
 18 20  2  0
 18 21  1  0
M  END
>  <%Rank>  (160) 
12.137405

>  <N_hits>  (160) 
2

>  <submitter_name>  (160) 
nan

>  <original SMILES>  (160) 
nan

>  <∆G_unbound>  (160) 
5.739235

>  <∆G_bound>  (160) 
-9.239149

>  <regarded>  (160) 
5CMS_0_C_δ,mArh-5cb5_P_0_P_β

>  <ref_pdb>  (160) 
nan

>  <smiles>  (160) 
NC1NCNC2C1NCN2CCOP(=O)(O)OP(=O)(O)O

>  <submitter_email>  (160) 
nan

>  <disregarded>  (160) 


>  <LE>  (160) 
-0.713256

>  <submitter_institution>  (160) 
nan

>  <ref_mols>  (160) 
5CMS_0_C,mArh-5cb5_P_0_P

>  <N_constrained_atoms>  (160) 
19.0

>  <ref_url>  (160) 
nan

>  <method>  (160) 
nan

>  <comRMSD>  (160) 
0.645951

>  <N_unconstrained_atoms>  (160) 
2.0

>  <∆∆G>  (160) 
-14.978384

>  <runtime>  (160) 
33.015617

>  <generation_date>  (160) 
nan

$$$$
mArh-6mea_B_0_B_α-mArh-6fx_7_0A_β
     RDKit          3D

 17 17  0  0  0  0  0  0  0  0999 V2000
   -1.7980   21.6690   -7.3960 C   0  0  0  0  0  0  0  0  0  0  0  0
   -0.7190   20.3080   -7.8800 P   0  0  1  0  0  0  0  0  0  0  0  0
   -0.5130   19.3050   -6.6780 O   0  0  0  0  0  0  0  0  0  0  0  0
   -3.0740   22.0170   -8.1830 C   0  0  1  0  0  0  0  0  0  0  0  0
   -0.9570   19.5560   -9.1230 O   0  0  0  0  0  0  0  0  0  0  0  0
    0.7260   21.0070   -7.8910 O   0  0  0  0  0  0  0  0  0  0  0  0
   -4.1740   21.2740   -7.6650 O   0  0  0  0  0  0  0  0  0  0  0  0
   -3.5720   23.4650   -8.0080 C   0  0  1  0  0  0  0  0  0  0  0  0
   -4.4580   23.8890   -9.0480 O   0  0  0  0  0  0  0  0  0  0  0  0
   -1.6620   18.4990   -5.9530 P   0  0  0  0  0  0  0  0  0  0  0  0
   -4.5820   21.9250   -6.4610 C   0  0  1  0  0  0  0  0  0  0  0  0
   -4.2950   23.4270   -6.6500 C   0  0  2  0  0  0  0  0  0  0  0  0
   -5.9410   21.6570   -6.1750 O   0  0  0  0  0  0  0  0  0  0  0  0
   -5.5450   24.1500   -6.6890 O   0  0  0  0  0  0  0  0  0  0  0  0
   -1.0250   17.0790   -5.6270 O   0  0  0  0  0  0  0  0  0  0  0  0
   -2.2630   19.1910   -4.7980 O   0  0  0  0  0  0  0  0  0  0  0  0
   -2.7020   18.0890   -7.0770 O   0  0  0  0  0  0  0  0  0  0  0  0
  1  2  1  0
  2  3  1  0
  4  1  1  1
  2  5  2  0
  2  6  1  6
  4  7  1  0
  4  8  1  0
  8  9  1  6
  3 10  1  0
  7 11  1  0
  8 12  1  0
 11 12  1  0
 11 13  1  6
 12 14  1  6
 10 15  1  0
 10 16  2  0
 10 17  1  0
M  END
>  <%Rank>  (161) 
12.21374

>  <N_hits>  (161) 
2

>  <submitter_name>  (161) 
nan

>  <original SMILES>  (161) 
nan

>  <∆G_unbound>  (161) 
1.703844

>  <∆G_bound>  (161) 
-12.864614

>  <regarded>  (161) 
mArh-6mea_B_0_B_α,mArh-6fx_7_0A_β

>  <ref_pdb>  (161) 
nan

>  <smiles>  (161) 
O=P(O)(O)OP(=O)(O)CC1OC(O)C(O)C1O

>  <submitter_email>  (161) 
nan

>  <disregarded>  (161) 


>  <LE>  (161) 
-0.856968

>  <submitter_institution>  (161) 
nan

>  <ref_mols>  (161) 
mArh-6mea_B_0_B,mArh-6fx_7_0A

>  <N_constrained_atoms>  (161) 
17.0

>  <ref_url>  (161) 
nan

>  <method>  (161) 
nan

>  <comRMSD>  (161) 
0.729637

>  <N_unconstrained_atoms>  (161) 
0.0

>  <∆∆G>  (161) 
-14.568458

>  <runtime>  (161) 
37.015147

>  <generation_date>  (161) 
nan

$$$$
mArh-5cb5_N_0_N_α-mArh-x0380_0_B_α
     RDKit          3D

 25 26  0  0  0  0  0  0  0  0999 V2000
   -2.1790   21.6500   -8.5280 C   0  0  0  0  0  0  0  0  0  0  0  0
   -3.5150   22.1920   -8.0840 C   0  0  2  0  0  0  0  0  0  0  0  0
   -4.5670   21.3390   -8.4520 O   0  0  0  0  0  0  0  0  0  0  0  0
   -4.0430   23.5120   -8.6130 C   0  0  1  0  0  0  0  0  0  0  0  0
   -4.1880   23.6160  -10.0250 O   0  0  0  0  0  0  0  0  0  0  0  0
   -5.6650   21.9710   -7.8030 C   0  0  2  0  0  0  0  0  0  0  0  0
   -5.4190   23.4840   -7.9330 C   0  0  2  0  0  0  0  0  0  0  0  0
   -5.6810   21.5800   -6.4320 O   0  0  0  0  0  0  0  0  0  0  0  0
   -6.4280   24.1450   -8.7180 O   0  0  0  0  0  0  0  0  0  0  0  0
   -5.9800   25.3880   -9.2520 C   0  0  0  0  0  0  0  0  0  0  0  0
   -7.0660   26.1810   -9.9870 C   0  0  0  0  0  0  0  0  0  0  0  0
   -6.4010   27.4190  -10.6130 C   0  0  0  0  0  0  0  0  0  0  0  0
   -7.3200   28.5970  -10.9660 C   0  0  0  0  0  0  0  0  0  0  0  0
   -7.0830   29.0740  -12.3640 C   0  0  0  0  0  0  0  0  0  0  0  0
   -5.7980   29.3630  -12.8460 C   0  0  0  0  0  0  0  0  0  0  0  0
   -8.1850   29.2290  -13.2040 C   0  0  0  0  0  0  0  0  0  0  0  0
   -4.6160   29.2170  -11.9640 C   0  0  0  0  0  0  0  0  0  0  0  0
   -8.0120   29.6610  -14.5110 C   0  0  0  0  0  0  0  0  0  0  0  0
   -5.6130   29.7910  -14.1690 C   0  0  0  0  0  0  0  0  0  0  0  0
   -4.2960   30.0490  -14.5970 N   0  0  0  0  0  0  0  0  0  0  0  0
   -6.7290   29.9390  -14.9930 C   0  0  0  0  0  0  0  0  0  0  0  0
   -3.8210   31.0750  -15.3780 C   0  0  0  0  0  0  0  0  0  0  0  0
   -4.4140   32.0950  -15.6850 O   0  0  0  0  0  0  0  0  0  0  0  0
   -2.3980   30.8320  -15.8980 C   0  0  0  0  0  0  0  0  0  0  0  0
   -2.2340   31.4370  -17.2400 N   0  0  0  0  0  0  0  0  0  0  0  0
  2  1  1  6
  2  3  1  0
  2  4  1  0
  4  5  1  6
  3  6  1  0
  4  7  1  0
  6  7  1  0
  6  8  1  1
  7  9  1  6
  9 10  1  0
 10 11  1  0
 11 12  1  0
 12 13  1  0
 13 14  1  0
 14 15  2  0
 14 16  1  0
 15 17  1  0
 16 18  2  0
 15 19  1  0
 19 20  1  0
 18 21  1  0
 19 21  2  0
 20 22  1  0
 22 23  2  0
 22 24  1  0
 24 25  1  0
M  END
>  <%Rank>  (162) 
12.290076

>  <N_hits>  (162) 
2

>  <submitter_name>  (162) 
nan

>  <original SMILES>  (162) 
nan

>  <∆G_unbound>  (162) 
0.391736

>  <∆G_bound>  (162) 
-8.006497

>  <regarded>  (162) 
mArh-5cb5_N_0_N_α,mArh-x0380_0_B_α

>  <ref_pdb>  (162) 
nan

>  <smiles>  (162) 
Cc1c(CCCCOC2C(O)OC(C)C2O)cccc1NC(=O)CN

>  <submitter_email>  (162) 
nan

>  <disregarded>  (162) 


>  <LE>  (162) 
-0.335929

>  <submitter_institution>  (162) 
nan

>  <ref_mols>  (162) 
mArh-5cb5_N_0_N,mArh-x0380_0_B

>  <N_constrained_atoms>  (162) 
22.0

>  <ref_url>  (162) 
nan

>  <method>  (162) 
nan

>  <comRMSD>  (162) 
0.498743

>  <N_unconstrained_atoms>  (162) 
3.0

>  <∆∆G>  (162) 
-8.398233

>  <runtime>  (162) 
58.58317

>  <generation_date>  (162) 
nan

$$$$
mArh-x0142_0_A_β-mArh-x0905_1_B_α
     RDKit          3D

 22 23  0  0  0  0  0  0  0  0999 V2000
   14.6300    7.0610   11.9880 N   0  0  0  0  0  0  0  0  0  0  0  0
   14.8750    8.3150   12.5590 C   0  0  0  0  0  0  0  0  0  0  0  0
   15.4520    9.3400   11.8090 C   0  0  0  0  0  0  0  0  0  0  0  0
   14.5500    8.5710   13.8910 C   0  0  0  0  0  0  0  0  0  0  0  0
   14.8010    9.8260   14.4550 C   0  0  0  0  0  0  0  0  0  0  0  0
   15.7040   10.5940   12.3750 C   0  0  0  0  0  0  0  0  0  0  0  0
   15.3850   10.8700   13.7110 C   0  0  0  0  0  0  0  0  0  0  0  0
   15.6190   12.1180   14.3300 N   0  0  0  0  0  0  0  0  0  0  0  0
   15.2790   12.0930   15.7600 C   0  0  0  0  0  0  0  0  0  0  0  0
   15.2030   13.3600   13.6410 C   0  0  0  0  0  0  0  0  0  0  0  0
   16.0660   14.5610   14.0650 C   0  0  0  0  0  0  0  0  0  0  0  0
   16.8650   15.1750   12.9060 C   0  0  0  0  0  0  0  0  0  0  0  0
   16.8690   16.7170   12.8520 C   0  0  0  0  0  0  0  0  0  0  0  0
   15.5570   17.2780   12.2900 C   0  0  0  0  0  0  0  0  0  0  0  0
   15.4010   18.8060   12.4190 C   0  0  0  0  0  0  0  0  0  0  0  0
   14.1600   19.3040   11.8800 O   0  0  0  0  0  0  0  0  0  0  0  0
   13.4570   20.1270   12.7470 C   0  0  0  0  0  0  0  0  0  0  0  0
   12.5180   19.5940   13.5500 N   0  0  0  0  0  0  0  0  0  0  0  0
   13.7790   21.4770   12.7340 C   0  0  0  0  0  0  0  0  0  0  0  0
   11.8720   20.4400   14.3750 C   0  0  0  0  0  0  0  0  0  0  0  0
   13.0930   22.3290   13.6020 C   0  0  0  0  0  0  0  0  0  0  0  0
   12.1220   21.7980   14.4400 C   0  0  0  0  0  0  0  0  0  0  0  0
  1  2  1  0
  2  3  2  0
  2  4  1  0
  4  5  2  0
  3  6  1  0
  5  7  1  0
  6  7  2  0
  7  8  1  0
  8  9  1  0
  8 10  1  0
 10 11  1  0
 11 12  1  0
 12 13  1  0
 13 14  1  0
 14 15  1  0
 15 16  1  0
 16 17  1  0
 17 18  2  0
 17 19  1  0
 18 20  1  0
 19 21  2  0
 20 22  2  0
 21 22  1  0
M  END
>  <%Rank>  (163) 
12.366412

>  <N_hits>  (163) 
2

>  <submitter_name>  (163) 
nan

>  <original SMILES>  (163) 
nan

>  <∆G_unbound>  (163) 
-0.184981

>  <∆G_bound>  (163) 
-5.62922

>  <regarded>  (163) 
mArh-x0142_0_A_β,mArh-x0905_1_B_α

>  <ref_pdb>  (163) 
nan

>  <smiles>  (163) 
CN(CCCCCCOc1ccccn1)c1ccc(N)cc1

>  <submitter_email>  (163) 
nan

>  <disregarded>  (163) 


>  <LE>  (163) 
-0.247465

>  <submitter_institution>  (163) 
nan

>  <ref_mols>  (163) 
mArh-x0142_0_A,mArh-x0905_1_B

>  <N_constrained_atoms>  (163) 
16.0

>  <ref_url>  (163) 
nan

>  <method>  (163) 
nan

>  <comRMSD>  (163) 
0.217538

>  <N_unconstrained_atoms>  (163) 
6.0

>  <∆∆G>  (163) 
-5.44424

>  <runtime>  (163) 
54.759281

>  <generation_date>  (163) 
nan

$$$$
mArh-5cb5_L_0_L_γ-3EW5_1_B_α
     RDKit          3D

 19 19  0  0  0  0  0  0  0  0999 V2000
   -0.5920   12.7840   -3.9350 O   0  0  0  0  0  0  0  0  0  0  0  0
   -0.7320   14.1580   -4.1100 C   0  0  1  0  0  0  0  0  0  0  0  0
   -0.1450   14.8200   -2.8580 C   0  0  0  0  0  0  0  0  0  0  0  0
    0.2800   14.6550   -5.1420 C   0  0  2  0  0  0  0  0  0  0  0  0
    1.3830   13.8370   -5.1820 O   0  0  0  0  0  0  0  0  0  0  0  0
    0.2430   16.0620   -3.3010 O   0  0  0  0  0  0  0  0  0  0  0  0
    0.5770   16.0650   -4.6250 C   0  0  2  0  0  0  0  0  0  0  0  0
   -0.3050   17.1310   -5.3290 C   0  0  0  0  0  0  0  0  0  0  0  0
    0.4070   18.2220   -6.0700 C   0  0  0  0  0  0  0  0  0  0  0  0
   -0.4610   19.1950   -6.5840 O   0  0  0  0  0  0  0  0  0  0  0  0
   -0.2260   19.9700   -7.8980 P   0  0  0  0  0  0  0  0  0  0  0  0
   -1.5640   20.9060   -7.8940 O   0  0  0  0  0  0  0  0  0  0  0  0
   -0.0840   18.6440   -8.7950 O   0  0  0  0  0  0  0  0  0  0  0  0
    1.2090   20.6090   -7.2860 O   0  0  0  0  0  0  0  0  0  0  0  0
   -2.5680   20.7900   -6.9780 C   0  0  0  0  0  0  0  0  0  0  0  0
   -3.6700   21.8130   -7.1550 C   0  0  2  0  0  0  0  0  0  0  0  0
   -5.0310   21.1710   -7.0090 C   0  0  0  0  0  0  0  0  0  0  0  0
   -3.6500   22.2620   -8.4910 O   0  0  0  0  0  0  0  0  0  0  0  0
   -5.6870   21.6130   -5.8780 O   0  0  0  0  0  0  0  0  0  0  0  0
  2  1  1  1
  2  3  1  0
  2  4  1  0
  4  5  1  1
  3  6  1  0
  4  7  1  0
  6  7  1  0
  7  8  1  6
  8  9  1  0
  9 10  1  0
 10 11  1  0
 11 12  1  0
 11 13  1  0
 11 14  1  0
 12 15  1  0
 15 16  1  0
 16 17  1  0
 16 18  1  6
 17 19  1  0
M  END
>  <%Rank>  (164) 
12.442748

>  <N_hits>  (164) 
2

>  <submitter_name>  (164) 
nan

>  <original SMILES>  (164) 
nan

>  <∆G_unbound>  (164) 
0.837709

>  <∆G_bound>  (164) 
-8.993509

>  <regarded>  (164) 
mArh-5cb5_L_0_L_γ,3EW5_1_B_α

>  <ref_pdb>  (164) 
nan

>  <smiles>  (164) 
OC[C@H](O)CO[PH](O)(O)OCCC1OCC(O)C1O

>  <submitter_email>  (164) 
nan

>  <disregarded>  (164) 


>  <LE>  (164) 
-0.517433

>  <submitter_institution>  (164) 
nan

>  <ref_mols>  (164) 
mArh-5cb5_L_0_L,3EW5_1_B

>  <N_constrained_atoms>  (164) 
18.0

>  <ref_url>  (164) 
nan

>  <method>  (164) 
nan

>  <comRMSD>  (164) 
0.556747

>  <N_unconstrained_atoms>  (164) 
1.0

>  <∆∆G>  (164) 
-9.831218

>  <runtime>  (164) 
37.773239

>  <generation_date>  (164) 
nan

$$$$
mArh-5cb5_L_0_L_γ-4GVW_0_A_α
     RDKit          3D

 21 22  0  0  0  0  0  0  0  0999 V2000
   -0.2640   12.4070   -3.9180 O   0  0  0  0  0  0  0  0  0  0  0  0
   -0.7150   13.7480   -4.1120 C   0  0  1  0  0  0  0  0  0  0  0  0
   -0.4470   14.6020   -2.8700 C   0  0  0  0  0  0  0  0  0  0  0  0
    0.1200   14.4530   -5.1690 C   0  0  2  0  0  0  0  0  0  0  0  0
    1.4850   14.0520   -5.0530 O   0  0  0  0  0  0  0  0  0  0  0  0
    0.0380   15.8770   -3.3340 O   0  0  0  0  0  0  0  0  0  0  0  0
   -0.2010   15.8960   -4.7420 C   0  0  1  0  0  0  0  0  0  0  0  0
    0.4340   17.1050   -5.4470 C   0  0  0  0  0  0  0  0  0  0  0  0
   -0.6770   17.9610   -6.0810 C   0  0  0  0  0  0  0  0  0  0  0  0
   -0.3440   19.3350   -6.1520 O   0  0  0  0  0  0  0  0  0  0  0  0
   -0.1680   19.9920   -7.6070 S   0  0  0  0  0  0  0  0  0  0  0  0
    0.8750   21.2130   -7.6380 O   0  0  0  0  0  0  0  0  0  0  0  0
    0.1850   18.8660   -8.6940 O   0  0  0  0  0  0  0  0  0  0  0  0
   -1.7510   20.6190   -8.1210 C   0  0  0  0  0  0  0  0  0  0  0  0
   -2.0940   22.0210   -7.6860 C   0  0  0  0  0  0  0  0  0  0  0  0
   -3.5560   22.2110   -7.5230 N   0  0  0  0  0  0  0  0  0  0  0  0
   -3.8100   23.1930   -6.4700 C   0  0  0  0  0  0  0  0  0  0  0  0
   -4.2150   22.6470   -8.7800 C   0  0  0  0  0  0  0  0  0  0  0  0
   -5.2410   23.6280   -6.3640 C   0  0  0  0  0  0  0  0  0  0  0  0
   -5.7140   22.8980   -8.5600 C   0  0  0  0  0  0  0  0  0  0  0  0
   -5.9270   23.9090   -7.5740 O   0  0  0  0  0  0  0  0  0  0  0  0
  2  1  1  1
  2  3  1  0
  2  4  1  0
  4  5  1  1
  3  6  1  0
  4  7  1  0
  6  7  1  0
  7  8  1  6
  8  9  1  0
  9 10  1  0
 11 10  1  0
 11 12  1  0
 11 13  1  0
 11 14  1  0
 14 15  1  0
 15 16  1  0
 16 17  1  0
 16 18  1  0
 17 19  1  0
 18 20  1  0
 19 21  1  0
 20 21  1  0
M  END
>  <%Rank>  (165) 
12.519084

>  <N_hits>  (165) 
2

>  <submitter_name>  (165) 
nan

>  <original SMILES>  (165) 
nan

>  <∆G_unbound>  (165) 
0.911523

>  <∆G_bound>  (165) 
-9.940107

>  <regarded>  (165) 
mArh-5cb5_L_0_L_γ,4GVW_0_A_α

>  <ref_pdb>  (165) 
nan

>  <smiles>  (165) 
OC1COC(CCOS(O)(O)CCN2CCOCC2)C1O

>  <submitter_email>  (165) 
nan

>  <disregarded>  (165) 


>  <LE>  (165) 
-0.516744

>  <submitter_institution>  (165) 
nan

>  <ref_mols>  (165) 
mArh-5cb5_L_0_L,4GVW_0_A

>  <N_constrained_atoms>  (165) 
20.0

>  <ref_url>  (165) 
nan

>  <method>  (165) 
nan

>  <comRMSD>  (165) 
0.598839

>  <N_unconstrained_atoms>  (165) 
1.0

>  <∆∆G>  (165) 
-10.85163

>  <runtime>  (165) 
38.667888

>  <generation_date>  (165) 
nan

$$$$
mArh-5l9k_A_0_A_γ-mArh-x0727_0_A_α
     RDKit          3D

 20 21  0  0  0  0  0  0  0  0999 V2000
   -2.1210   12.5070   -3.8780 O   0  0  0  0  0  0  0  0  0  0  0  0
   -1.9600   13.8800   -4.2330 C   0  0  1  0  0  0  0  0  0  0  0  0
   -1.7130   14.7470   -3.0060 C   0  0  0  0  0  0  0  0  0  0  0  0
   -0.6970   14.2010   -5.0320 C   0  0  2  0  0  0  0  0  0  0  0  0
    0.5040   13.6890   -4.4460 O   0  0  0  0  0  0  0  0  0  0  0  0
   -0.8760   15.8280   -3.4670 O   0  0  0  0  0  0  0  0  0  0  0  0
   -0.7990   15.7200   -4.8910 C   0  0  1  0  0  0  0  0  0  0  0  0
    0.3340   16.6120   -5.3780 C   0  0  0  0  0  0  0  0  0  0  0  0
    0.8580   12.3120   -4.6300 C   0  0  2  0  0  0  0  0  0  0  0  0
    0.0230   11.6290   -5.5910 N   0  0  0  0  0  0  0  0  0  0  0  0
    0.7180   11.6940   -3.2170 C   0  0  0  0  0  0  0  0  0  0  0  0
    0.1170   10.6690   -2.9370 O   0  0  0  0  0  0  0  0  0  0  0  0
    0.6410   11.1950   -6.7420 C   0  0  0  0  0  0  0  0  0  0  0  0
    1.3620   12.4470   -2.2820 O   0  0  0  0  0  0  0  0  0  0  0  0
    1.6490   11.7330   -7.1360 O   0  0  0  0  0  0  0  0  0  0  0  0
    0.0450   10.0010   -7.4870 C   0  0  0  0  0  0  0  0  0  0  0  0
   -1.2350   10.3500   -8.2450 C   0  0  0  0  0  0  0  0  0  0  0  0
   -0.3010    8.8130   -6.5720 C   0  0  0  0  0  0  0  0  0  0  0  0
   -2.1230    9.1200   -8.1170 C   0  0  0  0  0  0  0  0  0  0  0  0
   -1.7870    8.5560   -6.7470 C   0  0  0  0  0  0  0  0  0  0  0  0
  2  1  1  1
  2  3  1  0
  2  4  1  0
  4  5  1  1
  3  6  1  0
  4  7  1  0
  6  7  1  0
  7  8  1  1
  5  9  1  0
  9 10  1  6
  9 11  1  0
 11 12  2  0
 10 13  1  0
 11 14  1  0
 13 15  2  0
 13 16  1  0
 16 17  1  0
 16 18  1  0
 17 19  1  0
 18 20  1  0
 19 20  1  0
M  END
>  <%Rank>  (166) 
12.59542

>  <N_hits>  (166) 
2

>  <submitter_name>  (166) 
nan

>  <original SMILES>  (166) 
nan

>  <∆G_unbound>  (166) 
1.116063

>  <∆G_bound>  (166) 
-0.327656

>  <regarded>  (166) 
mArh-5l9k_A_0_A_γ,mArh-x0727_0_A_α

>  <ref_pdb>  (166) 
nan

>  <smiles>  (166) 
CC1OCC(O)C1O[C@@H](NC(=O)C1CCCC1)C(=O)O

>  <submitter_email>  (166) 
nan

>  <disregarded>  (166) 


>  <LE>  (166) 
-0.072186

>  <submitter_institution>  (166) 
nan

>  <ref_mols>  (166) 
mArh-5l9k_A_0_A,mArh-x0727_0_A

>  <N_constrained_atoms>  (166) 
20.0

>  <ref_url>  (166) 
nan

>  <method>  (166) 
nan

>  <comRMSD>  (166) 
0.402048

>  <N_unconstrained_atoms>  (166) 
0.0

>  <∆∆G>  (166) 
-1.443719

>  <runtime>  (166) 
27.734931

>  <generation_date>  (166) 
nan

$$$$
6FX7_0_A_β-mArh-x0465_0_A_α
     RDKit          3D

 25 25  0  0  0  0  0  0  0  0999 V2000
   -1.9590   20.8120   -7.9770 O   0  0  0  0  0  0  0  0  0  0  0  0
   -0.4620   20.0130   -7.9510 P   0  0  0  0  0  0  0  0  0  0  0  0
   -0.7900   19.4950   -6.5730 O   0  0  0  0  0  0  0  0  0  0  0  0
   -0.3290   18.5030   -8.6100 O   0  0  0  0  0  0  0  0  0  0  0  0
    0.8240   20.8810   -7.5980 O   0  0  0  0  0  0  0  0  0  0  0  0
   -1.6420   18.3330   -5.9650 P   0  0  0  0  0  0  0  0  0  0  0  0
   -0.2420   17.3790   -6.0760 O   0  0  0  0  0  0  0  0  0  0  0  0
   -2.0170   19.2450   -4.7150 O   0  0  0  0  0  0  0  0  0  0  0  0
   -2.6650   18.1880   -7.2280 O   0  0  0  0  0  0  0  0  0  0  0  0
    0.2000   17.3120   -4.7160 C   0  0  0  0  0  0  0  0  0  0  0  0
    1.2050   16.1480   -4.7890 C   0  0  0  0  0  0  0  0  0  0  0  0
    0.5120   14.8780   -5.0790 C   0  0  0  0  0  0  0  0  0  0  0  0
    1.3500   13.6740   -4.8200 C   0  0  0  0  0  0  0  0  0  0  0  0
    0.5040   12.5260   -4.4890 C   0  0  1  0  0  0  0  0  0  0  0  0
    0.5180   11.4680   -5.3860 O   0  0  0  0  0  0  0  0  0  0  0  0
    0.8320   12.0820   -3.0870 C   0  0  0  0  0  0  0  0  0  0  0  0
    1.3290   12.8200   -2.2440 O   0  0  0  0  0  0  0  0  0  0  0  0
    0.5130   10.7430   -2.7800 O   0  0  0  0  0  0  0  0  0  0  0  0
   -0.6260   10.7440   -5.6440 C   0  0  0  0  0  0  0  0  0  0  0  0
   -0.6610    9.7840   -6.6230 C   0  0  0  0  0  0  0  0  0  0  0  0
   -1.8020   10.9620   -4.9070 C   0  0  0  0  0  0  0  0  0  0  0  0
    0.4470    9.5590   -7.3420 F   0  0  0  0  0  0  0  0  0  0  0  0
   -1.7950    9.0350   -6.9040 C   0  0  0  0  0  0  0  0  0  0  0  0
   -2.9330   10.2180   -5.1880 C   0  0  0  0  0  0  0  0  0  0  0  0
   -2.9720    9.2530   -6.1670 C   0  0  0  0  0  0  0  0  0  0  0  0
  1  2  1  0
  2  3  1  0
  2  4  1  0
  2  5  1  0
  3  6  1  0
  6  7  1  0
  6  8  1  0
  6  9  1  0
  7 10  1  0
 10 11  1  0
 11 12  1  0
 12 13  1  0
 14 13  1  6
 14 15  1  0
 14 16  1  0
 16 17  2  0
 16 18  1  0
 15 19  1  0
 19 20  2  0
 19 21  1  0
 20 22  1  0
 20 23  1  0
 21 24  2  0
 23 25  2  0
 24 25  1  0
M  CHG  2   4  -1   8  -1
M  END
>  <%Rank>  (167) 
12.671756

>  <N_hits>  (167) 
2

>  <submitter_name>  (167) 
nan

>  <original SMILES>  (167) 
nan

>  <∆G_unbound>  (167) 
2.349486

>  <∆G_bound>  (167) 
-7.876769

>  <regarded>  (167) 
6FX7_0_A_β,mArh-x0465_0_A_α

>  <ref_pdb>  (167) 
nan

>  <smiles>  (167) 
O=C(O)[C@@H](CCCCO[PH]([O-])(O)O[PH]([O-])(O)O)Oc1ccccc1F

>  <submitter_email>  (167) 
nan

>  <disregarded>  (167) 


>  <LE>  (167) 
-0.40905

>  <submitter_institution>  (167) 
nan

>  <ref_mols>  (167) 
6FX7_0_A,mArh-x0465_0_A

>  <N_constrained_atoms>  (167) 
22.0

>  <ref_url>  (167) 
nan

>  <method>  (167) 
nan

>  <comRMSD>  (167) 
0.538052

>  <N_unconstrained_atoms>  (167) 
3.0

>  <∆∆G>  (167) 
-10.226256

>  <runtime>  (167) 
36.913039

>  <generation_date>  (167) 
nan

$$$$
mArh-x0128_0_A_α-mArh-mac-194_0_A_α
     RDKit          3D

 20 22  0  0  0  0  0  0  0  0999 V2000
   -6.5310   14.7950    2.4430 N   0  0  0  0  0  0  0  0  0  0  0  0
   -7.7080   15.1540    3.0720 C   0  0  0  0  0  0  0  0  0  0  0  0
   -8.7660   15.3620    2.4780 O   0  0  0  0  0  0  0  0  0  0  0  0
   -6.3180   14.7740    1.0860 C   0  0  0  0  0  0  0  0  0  0  0  0
   -7.7050   15.3060    4.4360 N   0  0  0  0  0  0  0  0  0  0  0  0
   -7.3020   14.7660    0.1880 C   0  0  0  0  0  0  0  0  0  0  0  0
   -5.0140   14.7770    0.3760 C   0  0  0  0  0  0  0  0  0  0  0  0
   -6.7290   14.7750   -1.1540 C   0  0  0  0  0  0  0  0  0  0  0  0
   -5.2860   14.7870   -0.9990 C   0  0  0  0  0  0  0  0  0  0  0  0
   -8.5060   16.1190    5.2680 C   0  0  0  0  0  0  0  0  0  0  0  0
   -3.6770   14.7710    0.7750 C   0  0  0  0  0  0  0  0  0  0  0  0
   -7.3530   14.7650   -2.1870 O   0  0  0  0  0  0  0  0  0  0  0  0
   -9.1840   17.2680    4.8650 C   0  0  0  0  0  0  0  0  0  0  0  0
   -8.6400   15.7470    6.6070 C   0  0  0  0  0  0  0  0  0  0  0  0
   -2.6820   14.7750   -0.2210 C   0  0  0  0  0  0  0  0  0  0  0  0
   -4.3370   14.7960   -1.9920 C   0  0  0  0  0  0  0  0  0  0  0  0
   -9.9510   18.0300    5.6800 N   0  0  0  0  0  0  0  0  0  0  0  0
   -9.4220   16.5150    7.4710 C   0  0  0  0  0  0  0  0  0  0  0  0
   -3.0090   14.7900   -1.5930 C   0  0  0  0  0  0  0  0  0  0  0  0
  -10.0520   17.6400    6.9620 C   0  0  0  0  0  0  0  0  0  0  0  0
  1  2  1  0
  2  3  2  0
  1  4  1  0
  2  5  1  0
  4  6  2  0
  4  7  1  0
  6  8  1  0
  7  9  2  0
  8  9  1  0
  5 10  1  0
  7 11  1  0
  8 12  2  0
 10 13  2  0
 10 14  1  0
 11 15  2  0
  9 16  1  0
 13 17  1  0
 14 18  2  0
 15 19  1  0
 16 19  2  0
 17 20  2  0
 18 20  1  0
M  END
>  <%Rank>  (168) 
12.748092

>  <N_hits>  (168) 
2

>  <submitter_name>  (168) 
nan

>  <original SMILES>  (168) 
nan

>  <∆G_unbound>  (168) 
0.603061

>  <∆G_bound>  (168) 
-5.294865

>  <regarded>  (168) 
mArh-x0128_0_A_α,mArh-mac-194_0_A_α

>  <ref_pdb>  (168) 
nan

>  <smiles>  (168) 
O=C(NC1=CC(=O)c2ccccc21)Nc1cccnc1

>  <submitter_email>  (168) 
nan

>  <disregarded>  (168) 


>  <LE>  (168) 
-0.294896

>  <submitter_institution>  (168) 
nan

>  <ref_mols>  (168) 
mArh-x0128_0_A,mArh-mac-194_0_A

>  <N_constrained_atoms>  (168) 
20.0

>  <ref_url>  (168) 
nan

>  <method>  (168) 
nan

>  <comRMSD>  (168) 
0.5137

>  <N_unconstrained_atoms>  (168) 
0.0

>  <∆∆G>  (168) 
-5.897927

>  <runtime>  (168) 
24.926775

>  <generation_date>  (168) 
nan

$$$$
6WOJ_0_D_β-mArh-mac-120_0_A_α
     RDKit          3D

 20 20  0  0  0  0  0  0  0  0999 V2000
   -1.4420   20.5310   -8.6070 O   0  0  0  0  0  0  0  0  0  0  0  0
   -0.2030   19.8340   -7.8000 P   0  0  0  0  0  0  0  0  0  0  0  0
   -0.5420   19.3590   -6.2160 O   0  0  0  0  0  0  0  0  0  0  0  0
    0.2260   21.2390   -7.3710 O   0  0  0  0  0  0  0  0  0  0  0  0
   -0.4150   18.4200   -8.3540 O   0  0  0  0  0  0  0  0  0  0  0  0
   -1.2490   18.0080   -5.9160 P   0  0  0  0  0  0  0  0  0  0  0  0
    0.1140   17.1110   -6.1720 O   0  0  0  0  0  0  0  0  0  0  0  0
   -1.3980   18.3240   -4.3000 O   0  0  0  0  0  0  0  0  0  0  0  0
   -2.3240   18.3120   -7.0980 O   0  0  0  0  0  0  0  0  0  0  0  0
   -1.3030   16.9890   -3.7710 C   0  0  0  0  0  0  0  0  0  0  0  0
   -2.4440   16.0610   -4.0090 C   0  0  0  0  0  0  0  0  0  0  0  0
   -2.2120   14.7930   -3.1190 C   0  0  0  0  0  0  0  0  0  0  0  0
   -3.2000   14.8080   -1.9660 C   0  0  0  0  0  0  0  0  0  0  0  0
   -2.7510   14.7880   -0.7320 N   0  0  0  0  0  0  0  0  0  0  0  0
   -4.5880   14.8380   -2.1980 C   0  0  0  0  0  0  0  0  0  0  0  0
   -5.5140   14.8490   -1.1750 C   0  0  0  0  0  0  0  0  0  0  0  0
   -3.6450   14.7960    0.3270 C   0  0  0  0  0  0  0  0  0  0  0  0
   -6.9670   14.8880   -1.4560 C   0  0  0  0  0  0  0  0  0  0  0  0
   -3.0590   14.7690    1.6180 N   0  0  0  0  0  0  0  0  0  0  0  0
   -4.9730   14.8250    0.0770 C   0  0  0  0  0  0  0  0  0  0  0  0
  1  2  1  0
  2  3  1  0
  2  4  1  0
  2  5  1  0
  3  6  1  0
  6  7  1  0
  6  8  1  0
  6  9  1  0
  8 10  1  0
 10 11  1  0
 11 12  1  0
 12 13  1  0
 13 14  2  0
 13 15  1  0
 15 16  2  0
 14 17  1  0
 16 18  1  0
 17 19  1  0
 16 20  1  0
 17 20  2  0
M  CHG  1   4  -1
M  END
>  <%Rank>  (169) 
12.824427

>  <N_hits>  (169) 
2

>  <submitter_name>  (169) 
nan

>  <original SMILES>  (169) 
nan

>  <∆G_unbound>  (169) 
0.779507

>  <∆G_bound>  (169) 
-10.127403

>  <regarded>  (169) 
6WOJ_0_D_β,mArh-mac-120_0_A_α

>  <ref_pdb>  (169) 
nan

>  <smiles>  (169) 
Cc1cc(N)nc(CCCO[PH](O)(O)O[PH]([O-])(O)O)c1

>  <submitter_email>  (169) 
nan

>  <disregarded>  (169) 


>  <LE>  (169) 
-0.545346

>  <submitter_institution>  (169) 
nan

>  <ref_mols>  (169) 
6WOJ_0_D,mArh-mac-120_0_A

>  <N_constrained_atoms>  (169) 
17.0

>  <ref_url>  (169) 
nan

>  <method>  (169) 
nan

>  <comRMSD>  (169) 
0.489998

>  <N_unconstrained_atoms>  (169) 
3.0

>  <∆∆G>  (169) 
-10.906911

>  <runtime>  (169) 
36.841297

>  <generation_date>  (169) 
nan

$$$$
mArh-5cms_L_11_L_γ-mArh-x0592_0_A_α
     RDKit          3D

 21 22  0  0  0  0  0  0  0  0999 V2000
    0.4340   12.3130   -4.1880 O   0  0  0  0  0  0  0  0  0  0  0  0
   -0.1840   13.5950   -4.1320 C   0  0  1  0  0  0  0  0  0  0  0  0
    0.3700   14.5370   -3.0690 C   0  0  2  0  0  0  0  0  0  0  0  0
    0.0470   14.3640   -5.4030 C   0  0  2  0  0  0  0  0  0  0  0  0
    1.3670   14.0900   -5.8470 O   0  0  0  0  0  0  0  0  0  0  0  0
   -0.2610   14.3650   -1.6940 C   0  0  0  0  0  0  0  0  0  0  0  0
    0.1330   15.8740   -3.5400 O   0  0  0  0  0  0  0  0  0  0  0  0
   -0.1600   15.8260   -4.9490 C   0  0  1  0  0  0  0  0  0  0  0  0
    0.7290   16.8780   -5.5970 C   0  0  0  0  0  0  0  0  0  0  0  0
   -1.7960   14.4190   -1.7030 C   0  0  0  0  0  0  0  0  0  0  0  0
   -2.1150   14.5980   -0.3060 N   0  0  0  0  0  0  0  0  0  0  0  0
   -3.2080   14.7470    0.3390 C   0  0  0  0  0  0  0  0  0  0  0  0
   -3.0820   14.8750    1.6820 N   0  0  0  0  0  0  0  0  0  0  0  0
   -4.6060   14.8060   -0.0230 C   0  0  0  0  0  0  0  0  0  0  0  0
   -5.2770   15.1090   -1.2370 C   0  0  0  0  0  0  0  0  0  0  0  0
   -5.6360   14.5510    0.8560 C   0  0  0  0  0  0  0  0  0  0  0  0
   -6.6160   15.0460   -1.1160 N   0  0  0  0  0  0  0  0  0  0  0  0
   -6.7960   14.7040    0.1780 N   0  0  0  0  0  0  0  0  0  0  0  0
   -8.1210   14.5320    0.7370 C   0  0  0  0  0  0  0  0  0  0  0  0
   -8.0630   14.0500    2.1870 C   0  0  0  0  0  0  0  0  0  0  0  0
   -7.3370   14.9540    3.0200 O   0  0  0  0  0  0  0  0  0  0  0  0
  2  1  1  6
  2  3  1  0
  2  4  1  0
  4  5  1  1
  3  6  1  1
  3  7  1  0
  4  8  1  0
  7  8  1  0
  8  9  1  6
  6 10  1  0
 10 11  1  0
 11 12  2  3
 12 13  1  0
 12 14  1  0
 14 15  1  0
 14 16  2  0
 15 17  2  0
 16 18  1  0
 17 18  1  0
 18 19  1  0
 19 20  1  0
 20 21  1  0
M  END
>  <%Rank>  (170) 
12.900763

>  <N_hits>  (170) 
2

>  <submitter_name>  (170) 
nan

>  <original SMILES>  (170) 
nan

>  <∆G_unbound>  (170) 
0.256842

>  <∆G_bound>  (170) 
-6.744755

>  <regarded>  (170) 
mArh-5cms_L_11_L_γ,mArh-x0592_0_A_α

>  <ref_pdb>  (170) 
nan

>  <smiles>  (170) 
CC1OC(CCN=C(N)c2cnn(CCO)c2)C(O)C1O

>  <submitter_email>  (170) 
nan

>  <disregarded>  (170) 


>  <LE>  (170) 
-0.333409

>  <submitter_institution>  (170) 
nan

>  <ref_mols>  (170) 
mArh-5cms_L_11_L,mArh-x0592_0_A

>  <N_constrained_atoms>  (170) 
19.0

>  <ref_url>  (170) 
nan

>  <method>  (170) 
nan

>  <comRMSD>  (170) 
0.462327

>  <N_unconstrained_atoms>  (170) 
2.0

>  <∆∆G>  (170) 
-7.001597

>  <runtime>  (170) 
42.774146

>  <generation_date>  (170) 
nan

$$$$
6MEA_0_B_γ-mArh-5fud_B_0_B_α
     RDKit          3D

 22 23  0  0  0  0  0  0  0  0999 V2000
   -1.9810   12.9570   -4.5220 O   0  0  0  0  0  0  0  0  0  0  0  0
   -0.7480   13.4340   -4.0130 C   0  0  2  0  0  0  0  0  0  0  0  0
   -0.8870   14.3730   -2.8140 C   0  0  0  0  0  0  0  0  0  0  0  0
   -0.0120   14.2490   -5.0640 C   0  0  2  0  0  0  0  0  0  0  0  0
    1.3480   13.8130   -5.1430 O   0  0  0  0  0  0  0  0  0  0  0  0
   -0.0720   15.5090   -3.0990 O   0  0  0  0  0  0  0  0  0  0  0  0
   -0.1480   15.6770   -4.5250 C   0  0  1  0  0  0  0  0  0  0  0  0
    0.9190   16.6820   -4.9230 C   0  0  0  0  0  0  0  0  0  0  0  0
    0.4860   18.1510   -4.8370 C   0  0  0  0  0  0  0  0  0  0  0  0
   -0.9220   18.4440   -5.3590 C   0  0  0  0  0  0  0  0  0  0  0  0
   -0.9190   18.2900   -6.8180 N   0  0  0  0  0  0  0  0  0  0  0  0
   -0.7430   19.6540   -7.8140 S   0  0  1  0  0  0  0  0  0  0  0  0
    0.4580   20.3880   -7.4910 O   0  0  0  0  0  0  0  0  0  0  0  0
   -0.9230   19.1120   -9.1090 O   0  0  0  0  0  0  0  0  0  0  0  0
   -2.1750   20.6100   -7.3340 C   0  0  0  0  0  0  0  0  0  0  0  0
   -2.5170   21.6870   -8.3440 C   0  0  0  0  0  0  0  0  0  0  0  0
   -3.8330   22.3030   -8.1860 N   0  0  0  0  0  0  0  0  0  0  0  0
   -4.4880   22.7300   -9.4190 C   0  0  0  0  0  0  0  0  0  0  0  0
   -3.9200   23.3660   -7.1890 C   0  0  0  0  0  0  0  0  0  0  0  0
   -5.9790   22.9460   -9.1390 C   0  0  0  0  0  0  0  0  0  0  0  0
   -5.3720   23.7040   -6.8980 C   0  0  0  0  0  0  0  0  0  0  0  0
   -6.2150   23.8640   -8.0570 O   0  0  0  0  0  0  0  0  0  0  0  0
  2  1  1  6
  2  3  1  0
  2  4  1  0
  4  5  1  1
  3  6  1  0
  4  7  1  0
  6  7  1  0
  7  8  1  6
  8  9  1  0
  9 10  1  0
 10 11  1  0
 11 12  2  0
 12 13  2  0
 12 14  1  6
 12 15  1  0
 15 16  1  0
 16 17  1  0
 17 18  1  0
 17 19  1  0
 18 20  1  0
 19 21  1  0
 20 22  1  0
 21 22  1  0
M  CHG  1  14  -1
M  END
>  <%Rank>  (171) 
12.977099

>  <N_hits>  (171) 
2

>  <submitter_name>  (171) 
nan

>  <original SMILES>  (171) 
nan

>  <∆G_unbound>  (171) 
0.329091

>  <∆G_bound>  (171) 
-14.254193

>  <regarded>  (171) 
6MEA_0_B_γ,mArh-5fud_B_0_B_α

>  <ref_pdb>  (171) 
nan

>  <smiles>  (171) 
O=S([O-])(CCN1CCOCC1)=NCCCC1OCC(O)C1O

>  <submitter_email>  (171) 
nan

>  <disregarded>  (171) 


>  <LE>  (171) 
-0.662877

>  <submitter_institution>  (171) 
nan

>  <ref_mols>  (171) 
6MEA_0_B,mArh-5fud_B_0_B

>  <N_constrained_atoms>  (171) 
20.0

>  <ref_url>  (171) 
nan

>  <method>  (171) 
nan

>  <comRMSD>  (171) 
0.648994

>  <N_unconstrained_atoms>  (171) 
2.0

>  <∆∆G>  (171) 
-14.583285

>  <runtime>  (171) 
46.239835

>  <generation_date>  (171) 
nan

$$$$
mArh-6mea_A_0_A_γ-mArh-5fud_B_0_B_α
     RDKit          3D

 22 23  0  0  0  0  0  0  0  0999 V2000
   -1.9970   13.1300   -4.6030 O   0  0  0  0  0  0  0  0  0  0  0  0
   -0.7510   13.4460   -4.0150 C   0  0  2  0  0  0  0  0  0  0  0  0
   -0.8450   14.3110   -2.7600 C   0  0  0  0  0  0  0  0  0  0  0  0
    0.0790   14.2570   -4.9920 C   0  0  2  0  0  0  0  0  0  0  0  0
    1.4410   13.8170   -4.9560 O   0  0  0  0  0  0  0  0  0  0  0  0
   -0.0730   15.4860   -3.0100 O   0  0  0  0  0  0  0  0  0  0  0  0
   -0.1020   15.6710   -4.4360 C   0  0  1  0  0  0  0  0  0  0  0  0
    0.9530   16.6960   -4.8010 C   0  0  0  0  0  0  0  0  0  0  0  0
    0.5000   18.1580   -4.7070 C   0  0  0  0  0  0  0  0  0  0  0  0
   -0.9100   18.4350   -5.2380 C   0  0  0  0  0  0  0  0  0  0  0  0
   -0.8880   18.2470   -6.6880 N   0  0  0  0  0  0  0  0  0  0  0  0
   -0.7610   19.5710   -7.7420 S   0  0  1  0  0  0  0  0  0  0  0  0
    0.4110   20.3670   -7.4650 O   0  0  0  0  0  0  0  0  0  0  0  0
   -0.9010   18.9030   -8.9800 O   0  0  0  0  0  0  0  0  0  0  0  0
   -2.2340   20.4910   -7.2980 C   0  0  0  0  0  0  0  0  0  0  0  0
   -2.5440   21.6100   -8.2700 C   0  0  0  0  0  0  0  0  0  0  0  0
   -3.8550   22.2480   -8.1190 N   0  0  0  0  0  0  0  0  0  0  0  0
   -4.4890   22.6880   -9.3590 C   0  0  0  0  0  0  0  0  0  0  0  0
   -3.9150   23.3390   -7.1560 C   0  0  0  0  0  0  0  0  0  0  0  0
   -5.9770   22.9280   -9.0930 C   0  0  0  0  0  0  0  0  0  0  0  0
   -5.3620   23.7190   -6.8820 C   0  0  0  0  0  0  0  0  0  0  0  0
   -6.1900   23.8870   -8.0490 O   0  0  0  0  0  0  0  0  0  0  0  0
  2  1  1  6
  2  3  1  0
  2  4  1  0
  4  5  1  1
  3  6  1  0
  4  7  1  0
  6  7  1  0
  7  8  1  6
  8  9  1  0
  9 10  1  0
 10 11  1  0
 11 12  2  0
 12 13  2  0
 12 14  1  6
 12 15  1  0
 15 16  1  0
 16 17  1  0
 17 18  1  0
 17 19  1  0
 18 20  1  0
 19 21  1  0
 20 22  1  0
 21 22  1  0
M  CHG  1  14  -1
M  END
>  <%Rank>  (172) 
13.053435

>  <N_hits>  (172) 
2

>  <submitter_name>  (172) 
nan

>  <original SMILES>  (172) 
nan

>  <∆G_unbound>  (172) 
0.329091

>  <∆G_bound>  (172) 
-14.966085

>  <regarded>  (172) 
mArh-6mea_A_0_A_γ,mArh-5fud_B_0_B_α

>  <ref_pdb>  (172) 
nan

>  <smiles>  (172) 
O=S([O-])(CCN1CCOCC1)=NCCCC1OCC(O)C1O

>  <submitter_email>  (172) 
nan

>  <disregarded>  (172) 


>  <LE>  (172) 
-0.695235

>  <submitter_institution>  (172) 
nan

>  <ref_mols>  (172) 
mArh-6mea_A_0_A,mArh-5fud_B_0_B

>  <N_constrained_atoms>  (172) 
20.0

>  <ref_url>  (172) 
nan

>  <method>  (172) 
nan

>  <comRMSD>  (172) 
0.666903

>  <N_unconstrained_atoms>  (172) 
2.0

>  <∆∆G>  (172) 
-15.295176

>  <runtime>  (172) 
48.977588

>  <generation_date>  (172) 
nan

$$$$
mArh-x0689_0_A_α-5CMS_0_R_δ
     RDKit          3D

 11 12  0  0  0  0  0  0  0  0999 V2000
   -3.7950   14.5300    1.3290 N   0  0  0  0  0  0  0  0  0  0  0  0
   -4.4580   15.7890    1.2560 C   0  0  0  0  0  0  0  0  0  0  0  0
   -2.4860   14.5500    0.8900 C   0  0  0  0  0  0  0  0  0  0  0  0
   -2.2690   14.6340   -0.4710 C   0  0  0  0  0  0  0  0  0  0  0  0
   -1.4640   14.4890    1.7550 N   0  0  0  0  0  0  0  0  0  0  0  0
   -0.9790   14.6480   -0.9650 C   0  0  0  0  0  0  0  0  0  0  0  0
   -0.2190   14.5070    1.2440 C   0  0  0  0  0  0  0  0  0  0  0  0
   -3.2290   14.7120   -1.5170 N   0  0  0  0  0  0  0  0  0  0  0  0
    0.0940   14.5850   -0.1060 C   0  0  0  0  0  0  0  0  0  0  0  0
   -0.9640   14.7330   -2.3750 N   0  0  0  0  0  0  0  0  0  0  0  0
   -2.3970   14.7570   -2.7170 C   0  0  0  0  0  0  0  0  0  0  0  0
  1  2  1  0
  1  3  1  0
  3  4  2  0
  3  5  1  0
  4  6  1  0
  5  7  2  0
  4  8  1  0
  6  9  2  0
  7  9  1  0
  6 10  1  0
  8 11  1  0
 10 11  1  0
M  END
>  <%Rank>  (173) 
13.129771

>  <N_hits>  (173) 
2

>  <submitter_name>  (173) 
nan

>  <original SMILES>  (173) 
nan

>  <∆G_unbound>  (173) 
0.011264

>  <∆G_bound>  (173) 
-7.50827

>  <regarded>  (173) 
mArh-x0689_0_A_α,5CMS_0_R_δ

>  <ref_pdb>  (173) 
nan

>  <smiles>  (173) 
CNc1nccc2c1NCN2

>  <submitter_email>  (173) 
nan

>  <disregarded>  (173) 


>  <LE>  (173) 
-0.683594

>  <submitter_institution>  (173) 
nan

>  <ref_mols>  (173) 
mArh-x0689_0_A,5CMS_0_R

>  <N_constrained_atoms>  (173) 
11.0

>  <ref_url>  (173) 
nan

>  <method>  (173) 
nan

>  <comRMSD>  (173) 
0.494265

>  <N_unconstrained_atoms>  (173) 
0.0

>  <∆∆G>  (173) 
-7.519534

>  <runtime>  (173) 
21.638617

>  <generation_date>  (173) 
nan

$$$$
6WOJ_0_A_β-6MEA_0_B_β
     RDKit          3D

  9  8  0  0  0  0  0  0  0  0999 V2000
   -1.6280   20.5600   -7.7330 O   0  0  0  0  0  0  0  0  0  0  0  0
   -0.1400   19.9610   -7.8790 P   0  0  0  0  0  0  0  0  0  0  0  0
   -0.0700   19.0690   -6.6690 O   0  0  0  0  0  0  0  0  0  0  0  0
    1.1800   20.8510   -7.4340 O   0  0  0  0  0  0  0  0  0  0  0  0
    0.0940   18.6060   -8.8370 O   0  0  0  0  0  0  0  0  0  0  0  0
   -1.3520   18.4030   -5.9060 P   0  0  0  0  0  0  0  0  0  0  0  0
   -0.5650   17.1490   -5.5320 O   0  0  0  0  0  0  0  0  0  0  0  0
   -1.6150   18.7440   -4.3520 O   0  0  0  0  0  0  0  0  0  0  0  0
   -2.5290   17.6020   -6.7650 O   0  0  0  0  0  0  0  0  0  0  0  0
  1  2  1  0
  2  3  1  0
  2  4  1  0
  2  5  1  0
  3  6  1  0
  6  7  1  0
  6  8  1  0
  6  9  1  0
M  CHG  2   4  -1   8  -1
M  END
>  <%Rank>  (174) 
13.206107

>  <N_hits>  (174) 
2

>  <submitter_name>  (174) 
nan

>  <original SMILES>  (174) 
nan

>  <∆G_unbound>  (174) 
0.654534

>  <∆G_bound>  (174) 
-6.333702

>  <regarded>  (174) 
6WOJ_0_A_β,6MEA_0_B_β

>  <ref_pdb>  (174) 
nan

>  <smiles>  (174) 
[O-][PH](O)(O)O[PH]([O-])(O)O

>  <submitter_email>  (174) 
nan

>  <disregarded>  (174) 


>  <LE>  (174) 
-0.776471

>  <submitter_institution>  (174) 
nan

>  <ref_mols>  (174) 
6WOJ_0_A,6MEA_0_B

>  <N_constrained_atoms>  (174) 
9.0

>  <ref_url>  (174) 
nan

>  <method>  (174) 
nan

>  <comRMSD>  (174) 
0.474017

>  <N_unconstrained_atoms>  (174) 
0.0

>  <∆∆G>  (174) 
-6.988236

>  <runtime>  (174) 
23.829607

>  <generation_date>  (174) 
nan

$$$$
mArh-5cb5_D_0_D_α-4J4Z_0_A_α
     RDKit          3D

 27 28  0  0  0  0  0  0  0  0999 V2000
   -1.9390   21.7700   -8.2130 C   0  0  0  0  0  0  0  0  0  0  0  0
   -3.3230   22.0600   -8.7860 C   0  0  1  0  0  0  0  0  0  0  0  0
   -4.2810   21.0760   -8.3700 O   0  0  0  0  0  0  0  0  0  0  0  0
   -3.8870   23.4210   -8.3920 C   0  0  1  0  0  0  0  0  0  0  0  0
   -4.7480   23.9520   -9.4100 O   0  0  0  0  0  0  0  0  0  0  0  0
   -5.1460   21.6550   -7.3880 C   0  0  2  0  0  0  0  0  0  0  0  0
   -4.6780   23.0960   -7.1290 C   0  0  2  0  0  0  0  0  0  0  0  0
   -4.9810   20.9120   -6.1850 O   0  0  0  0  0  0  0  0  0  0  0  0
   -5.8070   23.9670   -6.9720 O   0  0  0  0  0  0  0  0  0  0  0  0
   -3.5830   20.7920   -5.8510 C   0  0  0  0  0  0  0  0  0  0  0  0
   -2.8940   19.6420   -6.6080 C   0  0  0  0  0  0  0  0  0  0  0  0
   -1.6780   19.0480   -5.9010 C   0  0  0  0  0  0  0  0  0  0  0  0
   -1.9900   17.9710   -5.0100 O   0  0  0  0  0  0  0  0  0  0  0  0
   -0.8590   16.8200   -4.8120 S   0  0  0  0  0  0  0  0  0  0  0  0
    0.2130   17.1030   -3.6530 O   0  0  0  0  0  0  0  0  0  0  0  0
    0.0240   16.6610   -6.1210 O   0  0  0  0  0  0  0  0  0  0  0  0
   -1.6050   15.2380   -4.4500 C   0  0  0  0  0  0  0  0  0  0  0  0
   -0.5970   14.0970   -4.2520 C   0  0  0  0  0  0  0  0  0  0  0  0
   -1.2220   12.7740   -4.3110 N   0  0  0  0  0  0  0  0  0  0  0  0
   -2.3950   12.7740   -5.1970 C   0  0  0  0  0  0  0  0  0  0  0  0
   -0.2950   11.6410   -4.5520 C   0  0  0  0  0  0  0  0  0  0  0  0
   -3.0130   11.3910   -5.5250 C   0  0  0  0  0  0  0  0  0  0  0  0
   -0.9480   10.2310   -4.6830 C   0  0  0  0  0  0  0  0  0  0  0  0
   -2.3850   10.1610   -5.0270 N   0  0  0  0  0  0  0  0  0  0  0  0
   -2.9080    8.9960   -5.7340 C   0  0  0  0  0  0  0  0  0  0  0  0
   -2.7310    7.6150   -5.1710 C   0  0  0  0  0  0  0  0  0  0  0  0
   -3.4050    7.5160   -3.9160 O   0  0  0  0  0  0  0  0  0  0  0  0
  2  1  1  1
  2  3  1  0
  2  4  1  0
  4  5  1  6
  3  6  1  0
  4  7  1  0
  6  7  1  0
  6  8  1  1
  7  9  1  6
  8 10  1  0
 10 11  1  0
 11 12  1  0
 12 13  1  0
 14 13  1  0
 14 15  1  0
 14 16  1  0
 14 17  1  0
 17 18  1  0
 18 19  1  0
 19 20  1  0
 19 21  1  0
 20 22  1  0
 21 23  1  0
 22 24  1  0
 23 24  1  0
 24 25  1  0
 25 26  1  0
 26 27  1  0
M  END
>  <%Rank>  (175) 
13.282443

>  <N_hits>  (175) 
2

>  <submitter_name>  (175) 
nan

>  <original SMILES>  (175) 
nan

>  <∆G_unbound>  (175) 
2.183239

>  <∆G_bound>  (175) 
-10.21934

>  <regarded>  (175) 
mArh-5cb5_D_0_D_α,4J4Z_0_A_α

>  <ref_pdb>  (175) 
nan

>  <smiles>  (175) 
CC1OC(OCCCOS(O)(O)CCN2CCN(CCO)CC2)C(O)C1O

>  <submitter_email>  (175) 
nan

>  <disregarded>  (175) 


>  <LE>  (175) 
-0.459355

>  <submitter_institution>  (175) 
nan

>  <ref_mols>  (175) 
mArh-5cb5_D_0_D,4J4Z_0_A

>  <N_constrained_atoms>  (175) 
24.0

>  <ref_url>  (175) 
nan

>  <method>  (175) 
nan

>  <comRMSD>  (175) 
0.606024

>  <N_unconstrained_atoms>  (175) 
3.0

>  <∆∆G>  (175) 
-12.402579

>  <runtime>  (175) 
43.917188

>  <generation_date>  (175) 
nan

$$$$
5CMS_0_R_γ-mArh-x0895_1_A_α
     RDKit          3D

 18 19  0  0  0  0  0  0  0  0999 V2000
    0.1200   12.0640   -4.2090 O   0  0  0  0  0  0  0  0  0  0  0  0
   -0.1090   13.4670   -4.1010 C   0  0  1  0  0  0  0  0  0  0  0  0
    0.6060   14.1140   -2.9270 C   0  0  2  0  0  0  0  0  0  0  0  0
    0.5280   14.2150   -5.2690 C   0  0  2  0  0  0  0  0  0  0  0  0
    1.6350   13.4350   -5.7600 O   0  0  0  0  0  0  0  0  0  0  0  0
    0.0380   13.7460   -1.5390 C   0  0  0  0  0  0  0  0  0  0  0  0
    0.5210   15.5150   -3.2550 O   0  0  0  0  0  0  0  0  0  0  0  0
    0.9990   15.5390   -4.6280 C   0  0  2  0  0  0  0  0  0  0  0  0
    0.4680   16.7970   -5.3060 C   0  0  0  0  0  0  0  0  0  0  0  0
   -0.3590   14.8430   -0.5580 C   0  0  0  0  0  0  0  0  0  0  0  0
   -0.3160   14.4440    0.9190 C   0  0  0  0  0  0  0  0  0  0  0  0
   -1.6350   14.5670    1.5600 N   0  0  0  0  0  0  0  0  0  0  0  0
   -2.7160   14.6500    0.8370 C   0  0  0  0  0  0  0  0  0  0  0  0
   -2.9500   14.6310   -0.6660 C   0  0  0  0  0  0  0  0  0  0  0  0
   -3.9170   14.7670    1.4550 N   0  0  0  0  0  0  0  0  0  0  0  0
   -4.3210   15.0430   -0.6960 N   0  0  0  0  0  0  0  0  0  0  0  0
   -4.9020   14.8850    0.5340 C   0  0  0  0  0  0  0  0  0  0  0  0
   -6.1030   14.8520    0.7410 O   0  0  0  0  0  0  0  0  0  0  0  0
  2  1  1  6
  2  3  1  0
  2  4  1  0
  4  5  1  1
  3  6  1  1
  3  7  1  0
  4  8  1  0
  7  8  1  0
  8  9  1  6
  6 10  1  0
 10 11  1  0
 11 12  1  0
 12 13  2  3
 13 14  1  0
 13 15  1  0
 14 16  1  0
 15 17  1  0
 16 17  1  0
 17 18  2  0
M  END
>  <%Rank>  (176) 
13.358779

>  <N_hits>  (176) 
2

>  <submitter_name>  (176) 
nan

>  <original SMILES>  (176) 
nan

>  <∆G_unbound>  (176) 
1.628288

>  <∆G_bound>  (176) 
-6.738725

>  <regarded>  (176) 
5CMS_0_R_γ,mArh-x0895_1_A_α

>  <ref_pdb>  (176) 
nan

>  <smiles>  (176) 
CC1OC(CCCN=C2CNC(=O)N2)C(O)C1O

>  <submitter_email>  (176) 
nan

>  <disregarded>  (176) 


>  <LE>  (176) 
-0.464834

>  <submitter_institution>  (176) 
nan

>  <ref_mols>  (176) 
5CMS_0_R,mArh-x0895_1_A

>  <N_constrained_atoms>  (176) 
15.0

>  <ref_url>  (176) 
nan

>  <method>  (176) 
nan

>  <comRMSD>  (176) 
0.397253

>  <N_unconstrained_atoms>  (176) 
3.0

>  <∆∆G>  (176) 
-8.367014

>  <runtime>  (176) 
31.306393

>  <generation_date>  (176) 
nan

$$$$
5L9K_0_B_δ-mArh-1spv_0_A_α
     RDKit          3D

 26 28  0  0  0  0  0  0  0  0999 V2000
   -4.1780   15.7290    1.8930 N   0  0  0  0  0  0  0  0  0  0  0  0
   -3.1670   14.8900    1.2660 C   0  0  1  0  0  0  0  0  0  0  0  0
   -3.2500   14.7290   -0.2510 C   0  0  2  0  0  0  0  0  0  0  0  0
   -1.8860   15.4110    1.6110 N   0  0  0  0  0  0  0  0  0  0  0  0
   -2.1270   15.5090   -0.9200 C   0  0  2  0  0  0  0  0  0  0  0  0
   -4.4070   15.2630   -0.9620 N   0  0  0  0  0  0  0  0  0  0  0  0
   -0.7670   14.7900    0.9380 C   0  0  0  0  0  0  0  0  0  0  0  0
   -2.4500   15.2310   -2.3140 N   0  0  0  0  0  0  0  0  0  0  0  0
   -3.9220   15.1220   -2.3360 C   0  0  0  0  0  0  0  0  0  0  0  0
   -0.8100   15.1180   -0.4800 N   0  0  0  0  0  0  0  0  0  0  0  0
   -1.8730   15.9770   -3.4600 C   0  0  0  0  0  0  0  0  0  0  0  0
   -0.4160   16.5250   -3.5260 C   0  0  0  0  0  0  0  0  0  0  0  0
   -0.2440   17.9310   -4.1560 C   0  0  0  0  0  0  0  0  0  0  0  0
    0.3310   17.9650   -5.5920 C   0  0  0  0  0  0  0  0  0  0  0  0
   -0.5300   18.7980   -6.3850 O   0  0  0  0  0  0  0  0  0  0  0  0
   -0.0470   19.5200   -7.7800 S   0  0  0  0  0  0  0  0  0  0  0  0
    0.9180   20.5560   -7.5060 O   0  0  0  0  0  0  0  0  0  0  0  0
    0.2210   18.5170   -8.7810 O   0  0  0  0  0  0  0  0  0  0  0  0
   -1.5690   20.3000   -8.1980 C   0  0  0  0  0  0  0  0  0  0  0  0
   -1.9600   21.6340   -7.6140 C   0  0  0  0  0  0  0  0  0  0  0  0
   -3.4000   21.9250   -7.7060 N   0  0  0  0  0  0  0  0  0  0  0  0
   -3.8230   22.3900   -9.0380 C   0  0  0  0  0  0  0  0  0  0  0  0
   -3.7730   22.9590   -6.7230 C   0  0  0  0  0  0  0  0  0  0  0  0
   -5.3140   22.7080   -9.0850 C   0  0  0  0  0  0  0  0  0  0  0  0
   -5.2270   23.4150   -6.8710 C   0  0  0  0  0  0  0  0  0  0  0  0
   -5.5640   23.8050   -8.2100 O   0  0  0  0  0  0  0  0  0  0  0  0
  2  1  1  6
  2  3  1  0
  2  4  1  0
  3  5  1  0
  3  6  1  6
  4  7  1  0
  5  8  1  0
  6  9  1  0
  8  9  1  0
  5 10  1  1
  7 10  1  0
  8 11  1  0
 11 12  1  0
 12 13  1  0
 13 14  1  0
 14 15  1  0
 16 15  1  0
 16 17  2  0
 16 18  2  0
 16 19  1  0
 19 20  1  0
 20 21  1  0
 21 22  1  0
 21 23  1  0
 22 24  1  0
 23 25  1  0
 24 26  1  0
 25 26  1  0
M  END
>  <%Rank>  (177) 
13.435115

>  <N_hits>  (177) 
2

>  <submitter_name>  (177) 
nan

>  <original SMILES>  (177) 
nan

>  <∆G_unbound>  (177) 
1.016797

>  <∆G_bound>  (177) 
-12.826131

>  <regarded>  (177) 
5L9K_0_B_δ,mArh-1spv_0_A_α

>  <ref_pdb>  (177) 
nan

>  <smiles>  (177) 
NC1NCNC2C1NCN2CCCCOS(=O)(=O)CCN1CCOCC1

>  <submitter_email>  (177) 
nan

>  <disregarded>  (177) 


>  <LE>  (177) 
-0.53242

>  <submitter_institution>  (177) 
nan

>  <ref_mols>  (177) 
5L9K_0_B,mArh-1spv_0_A

>  <N_constrained_atoms>  (177) 
22.0

>  <ref_url>  (177) 
nan

>  <method>  (177) 
nan

>  <comRMSD>  (177) 
0.583109

>  <N_unconstrained_atoms>  (177) 
4.0

>  <∆∆G>  (177) 
-13.842928

>  <runtime>  (177) 
52.606114

>  <generation_date>  (177) 
nan

$$$$
mArh-5cb5_E_0_E_γ-mArh-x0969_0_A_α
     RDKit          3D

 19 21  0  0  0  0  0  0  0  0999 V2000
   -1.0520   12.7600   -3.5610 O   0  0  0  0  0  0  0  0  0  0  0  0
   -1.2070   13.9370   -4.3450 C   0  0  1  0  0  0  0  0  0  0  0  0
   -1.4100   15.2630   -3.6140 C   0  0  1  0  0  0  0  0  0  0  0  0
    0.1600   14.2600   -4.9880 C   0  0  2  0  0  0  0  0  0  0  0  0
    1.0350   13.1550   -4.7740 O   0  0  0  0  0  0  0  0  0  0  0  0
   -2.6720   15.8400   -2.9520 C   0  0  0  0  0  0  0  0  0  0  0  0
   -0.1610   15.6490   -3.0630 O   0  0  0  0  0  0  0  0  0  0  0  0
    0.6440   15.5490   -4.2540 C   0  0  2  0  0  0  0  0  0  0  0  0
    0.5340   16.8470   -5.0510 C   0  0  0  0  0  0  0  0  0  0  0  0
   -3.5210   15.4760   -1.7270 C   0  0  0  0  0  0  0  0  0  0  0  0
   -4.8000   15.1540   -1.9890 C   0  0  0  0  0  0  0  0  0  0  0  0
   -3.0670   15.5450   -0.3190 C   0  0  0  0  0  0  0  0  0  0  0  0
   -5.7280   14.9100   -0.9610 C   0  0  0  0  0  0  0  0  0  0  0  0
   -3.9680   15.3150    0.6860 C   0  0  0  0  0  0  0  0  0  0  0  0
   -6.9980   14.6080   -1.0150 N   0  0  0  0  0  0  0  0  0  0  0  0
   -5.3030   15.0070    0.3500 N   0  0  0  0  0  0  0  0  0  0  0  0
   -6.4680   14.7500    1.0850 C   0  0  0  0  0  0  0  0  0  0  0  0
   -7.4640   14.5080    0.2650 N   0  0  0  0  0  0  0  0  0  0  0  0
   -6.5810   14.7570    2.4220 N   0  0  0  0  0  0  0  0  0  0  0  0
  2  1  1  1
  2  3  1  0
  2  4  1  0
  4  5  1  1
  3  6  1  1
  3  7  1  0
  4  8  1  0
  7  8  1  0
  8  9  1  6
  6 10  1  0
 10 11  2  0
 10 12  1  0
 11 13  1  0
 12 14  2  0
 13 15  2  0
 13 16  1  0
 14 16  1  0
 16 17  1  0
 15 18  1  0
 17 18  2  0
 17 19  1  0
M  END
>  <%Rank>  (178) 
13.51145

>  <N_hits>  (178) 
2

>  <submitter_name>  (178) 
nan

>  <original SMILES>  (178) 
nan

>  <∆G_unbound>  (178) 
0.707201

>  <∆G_bound>  (178) 
-5.931676

>  <regarded>  (178) 
mArh-5cb5_E_0_E_γ,mArh-x0969_0_A_α

>  <ref_pdb>  (178) 
nan

>  <smiles>  (178) 
CC1OC(Cc2ccn3c(N)nnc3c2)C(O)C1O

>  <submitter_email>  (178) 
nan

>  <disregarded>  (178) 


>  <LE>  (178) 
-0.349415

>  <submitter_institution>  (178) 
nan

>  <ref_mols>  (178) 
mArh-5cb5_E_0_E,mArh-x0969_0_A

>  <N_constrained_atoms>  (178) 
18.0

>  <ref_url>  (178) 
nan

>  <method>  (178) 
nan

>  <comRMSD>  (178) 
0.479559

>  <N_unconstrained_atoms>  (178) 
1.0

>  <∆∆G>  (178) 
-6.638877

>  <runtime>  (178) 
31.760412

>  <generation_date>  (178) 
nan

$$$$
4IQY_0_B_β-MAC-242_0_A_α
     RDKit          3D

 22 23  0  0  0  0  0  0  0  0999 V2000
   -1.6400   20.7060   -8.2250 O   0  0  0  0  0  0  0  0  0  0  0  0
   -0.5120   19.6460   -7.6460 P   0  0  0  0  0  0  0  0  0  0  0  0
   -1.6550   18.6830   -7.3260 O   0  0  0  0  0  0  0  0  0  0  0  0
    0.5640   20.7180   -7.8690 O   0  0  0  0  0  0  0  0  0  0  0  0
    0.1610   18.6470   -8.7380 O   0  0  0  0  0  0  0  0  0  0  0  0
   -1.9250   18.0170   -5.9860 P   0  0  0  0  0  0  0  0  0  0  0  0
   -0.3480   17.4780   -5.9660 O   0  0  0  0  0  0  0  0  0  0  0  0
   -2.1390   17.2130   -4.7190 O   0  0  0  0  0  0  0  0  0  0  0  0
   -2.9790   17.0500   -6.7570 O   0  0  0  0  0  0  0  0  0  0  0  0
   -1.3380   16.0540   -4.6170 C   0  0  0  0  0  0  0  0  0  0  0  0
   -2.2850   14.9170   -4.3600 C   0  0  0  0  0  0  0  0  0  0  0  0
   -2.3940   14.8220   -2.8900 C   0  0  0  0  0  0  0  0  0  0  0  0
   -1.3190   14.4320   -2.1280 C   0  0  0  0  0  0  0  0  0  0  0  0
   -3.5760   15.1440   -2.2590 C   0  0  0  0  0  0  0  0  0  0  0  0
   -1.4280   14.3840   -0.7680 C   0  0  0  0  0  0  0  0  0  0  0  0
   -3.6890   15.0950   -0.9010 C   0  0  0  0  0  0  0  0  0  0  0  0
   -2.6180   14.7240   -0.1510 C   0  0  0  0  0  0  0  0  0  0  0  0
   -0.3840   14.0130    0.0630 C   0  0  0  0  0  0  0  0  0  0  0  0
   -2.7290   14.6980    1.1940 C   0  0  0  0  0  0  0  0  0  0  0  0
   -0.5400   13.9960    1.4290 C   0  0  0  0  0  0  0  0  0  0  0  0
   -3.9620   15.0720    1.7730 N   0  0  0  0  0  0  0  0  0  0  0  0
   -1.7080   14.3400    1.9710 N   0  0  0  0  0  0  0  0  0  0  0  0
  1  2  1  0
  2  3  1  0
  2  4  1  0
  2  5  1  0
  3  6  1  0
  6  7  1  0
  6  8  1  0
  6  9  1  0
  8 10  1  0
 10 11  1  0
 11 12  1  0
 12 13  2  0
 12 14  1  0
 13 15  1  0
 14 16  2  0
 15 17  2  0
 16 17  1  0
 15 18  1  0
 17 19  1  0
 18 20  2  0
 19 21  1  0
 19 22  2  0
 20 22  1  0
M  CHG  1   4  -1
M  END
>  <%Rank>  (179) 
13.587786

>  <N_hits>  (179) 
2

>  <submitter_name>  (179) 
nan

>  <original SMILES>  (179) 
nan

>  <∆G_unbound>  (179) 
1.002552

>  <∆G_bound>  (179) 
-11.999073

>  <regarded>  (179) 
4IQY_0_B_β,MAC-242_0_A_α

>  <ref_pdb>  (179) 
nan

>  <smiles>  (179) 
Nc1nccc2cc(CCO[PH](O)(O)O[PH]([O-])(O)O)ccc12

>  <submitter_email>  (179) 
nan

>  <disregarded>  (179) 


>  <LE>  (179) 
-0.590983

>  <submitter_institution>  (179) 
nan

>  <ref_mols>  (179) 
4IQY_0_B,MAC-242_0_A

>  <N_constrained_atoms>  (179) 
20.0

>  <ref_url>  (179) 
nan

>  <method>  (179) 
nan

>  <comRMSD>  (179) 
0.620714

>  <N_unconstrained_atoms>  (179) 
2.0

>  <∆∆G>  (179) 
-13.001625

>  <runtime>  (179) 
40.77768

>  <generation_date>  (179) 
nan

$$$$
mArh-x0626_0_A_α-mArh-5cms_Q_16_Q_γ
     RDKit          3D

 21 22  0  0  0  0  0  0  0  0999 V2000
   -4.9070   14.8910    1.4760 N   0  0  0  0  0  0  0  0  0  0  0  0
   -6.0900   14.7090    0.8250 C   0  0  0  0  0  0  0  0  0  0  0  0
   -6.1320   14.8560   -0.4020 O   0  0  0  0  0  0  0  0  0  0  0  0
   -3.6800   14.8280    0.9020 C   0  0  0  0  0  0  0  0  0  0  0  0
   -7.3210   14.3410    1.6260 C   0  0  0  0  0  0  0  0  0  0  0  0
   -2.4870   14.6830    1.4580 N   0  0  0  0  0  0  0  0  0  0  0  0
   -3.7540   14.9580   -0.7940 S   0  0  0  0  0  0  0  0  0  0  0  0
   -8.6040   14.6540    0.8720 C   0  0  0  0  0  0  0  0  0  0  0  0
   -2.0650   14.8030   -0.8370 C   0  0  0  0  0  0  0  0  0  0  0  0
   -1.5530   14.6680    0.4370 C   0  0  0  0  0  0  0  0  0  0  0  0
   -0.1110   14.5140    0.7170 C   0  0  0  0  0  0  0  0  0  0  0  0
    0.5900   14.4920   -0.6460 C   0  0  0  0  0  0  0  0  0  0  0  0
   -0.0200   13.4300   -1.5600 C   0  0  0  0  0  0  0  0  0  0  0  0
    0.1050   13.8550   -3.0260 C   0  0  2  0  0  0  0  0  0  0  0  0
    0.1480   15.2920   -3.2090 O   0  0  0  0  0  0  0  0  0  0  0  0
   -1.0220   13.4650   -3.9690 C   0  0  2  0  0  0  0  0  0  0  0  0
   -1.1350   12.0500   -4.1550 O   0  0  0  0  0  0  0  0  0  0  0  0
   -0.2580   15.5230   -4.5860 C   0  0  2  0  0  0  0  0  0  0  0  0
   -0.4220   14.1110   -5.1840 C   0  0  1  0  0  0  0  0  0  0  0  0
    0.7500   16.4240   -5.2730 C   0  0  0  0  0  0  0  0  0  0  0  0
    0.8440   13.4980   -5.4710 O   0  0  0  0  0  0  0  0  0  0  0  0
  1  2  1  0
  2  3  2  0
  1  4  1  0
  2  5  1  0
  4  6  2  0
  4  7  1  0
  5  8  1  0
  7  9  1  0
  6 10  1  0
  9 10  2  0
 10 11  1  0
 11 12  1  0
 12 13  1  0
 14 13  1  1
 14 15  1  0
 14 16  1  0
 16 17  1  6
 15 18  1  0
 16 19  1  0
 18 19  1  0
 18 20  1  6
 19 21  1  1
M  END
>  <%Rank>  (180) 
13.664122

>  <N_hits>  (180) 
2

>  <submitter_name>  (180) 
nan

>  <original SMILES>  (180) 
nan

>  <∆G_unbound>  (180) 
0.11782

>  <∆G_bound>  (180) 
-7.468579

>  <regarded>  (180) 
mArh-x0626_0_A_α,mArh-5cms_Q_16_Q_γ

>  <ref_pdb>  (180) 
nan

>  <smiles>  (180) 
CCC(=O)Nc1nc(CCCC2OC(C)C(O)C2O)cs1

>  <submitter_email>  (180) 
nan

>  <disregarded>  (180) 


>  <LE>  (180) 
-0.361257

>  <submitter_institution>  (180) 
nan

>  <ref_mols>  (180) 
mArh-x0626_0_A,mArh-5cms_Q_16_Q

>  <N_constrained_atoms>  (180) 
19.0

>  <ref_url>  (180) 
nan

>  <method>  (180) 
nan

>  <comRMSD>  (180) 
0.485818

>  <N_unconstrained_atoms>  (180) 
2.0

>  <∆∆G>  (180) 
-7.586399

>  <runtime>  (180) 
40.243245

>  <generation_date>  (180) 
nan

$$$$
5CB5_0_Q_δ-mArh-6mea_A_0_A_β
     RDKit          3D

 21 22  0  0  0  0  0  0  0  0999 V2000
   -3.7850   14.7370    1.7070 N   0  0  0  0  0  0  0  0  0  0  0  0
   -2.7430   15.3200    0.9190 C   0  0  2  0  0  0  0  0  0  0  0  0
   -2.4960   14.5790   -0.3660 C   0  0  2  0  0  0  0  0  0  0  0  0
   -1.5090   15.2820    1.6710 N   0  0  0  0  0  0  0  0  0  0  0  0
   -1.1720   15.1680   -0.8000 C   0  0  2  0  0  0  0  0  0  0  0  0
   -3.4080   14.8540   -1.5170 N   0  0  0  0  0  0  0  0  0  0  0  0
   -0.5130   14.3140    1.2180 C   0  0  0  0  0  0  0  0  0  0  0  0
   -1.1960   14.9150   -2.1850 N   0  0  0  0  0  0  0  0  0  0  0  0
   -2.4700   15.5500   -2.3790 C   0  0  1  0  0  0  0  0  0  0  0  0
   -0.0320   14.6990   -0.0890 N   0  0  0  0  0  0  0  0  0  0  0  0
   -2.7420   15.7440   -3.8320 C   0  0  0  0  0  0  0  0  0  0  0  0
   -1.5580   16.5840   -4.2780 C   0  0  0  0  0  0  0  0  0  0  0  0
   -1.9210   17.9310   -4.5330 O   0  0  0  0  0  0  0  0  0  0  0  0
   -1.6480   18.2420   -6.0430 P   0  0  1  0  0  0  0  0  0  0  0  0
   -0.8910   19.5710   -6.3120 O   0  0  0  0  0  0  0  0  0  0  0  0
   -0.4110   17.2430   -6.1600 O   0  0  0  0  0  0  0  0  0  0  0  0
   -2.7100   17.8340   -6.9680 O   0  0  0  0  0  0  0  0  0  0  0  0
   -0.2270   19.9670   -7.6740 P   0  0  0  0  0  0  0  0  0  0  0  0
   -1.4080   20.7030   -8.4520 O   0  0  0  0  0  0  0  0  0  0  0  0
    1.0010   20.8310   -7.5780 O   0  0  0  0  0  0  0  0  0  0  0  0
   -0.0230   18.6540   -8.5730 O   0  0  0  0  0  0  0  0  0  0  0  0
  2  1  1  1
  2  3  1  0
  2  4  1  0
  3  5  1  0
  3  6  1  6
  4  7  1  0
  5  8  1  6
  6  9  1  0
  8  9  1  0
  5 10  1  0
  7 10  1  0
  9 11  1  6
 11 12  1  0
 12 13  1  0
 13 14  1  0
 14 15  1  0
 14 16  1  6
 14 17  2  0
 15 18  1  0
 18 19  1  0
 18 20  2  0
 18 21  1  0
M  END
>  <%Rank>  (181) 
13.740458

>  <N_hits>  (181) 
2

>  <submitter_name>  (181) 
nan

>  <original SMILES>  (181) 
nan

>  <∆G_unbound>  (181) 
1.894859

>  <∆G_bound>  (181) 
-8.749739

>  <regarded>  (181) 
5CB5_0_Q_δ,mArh-6mea_A_0_A_β

>  <ref_pdb>  (181) 
nan

>  <smiles>  (181) 
NC1NCNC2NC(CCOP(=O)(O)OP(=O)(O)O)NC12

>  <submitter_email>  (181) 
nan

>  <disregarded>  (181) 


>  <LE>  (181) 
-0.506886

>  <submitter_institution>  (181) 
nan

>  <ref_mols>  (181) 
5CB5_0_Q,mArh-6mea_A_0_A

>  <N_constrained_atoms>  (181) 
19.0

>  <ref_url>  (181) 
nan

>  <method>  (181) 
nan

>  <comRMSD>  (181) 
0.55893

>  <N_unconstrained_atoms>  (181) 
2.0

>  <∆∆G>  (181) 
-10.644597

>  <runtime>  (181) 
37.180856

>  <generation_date>  (181) 
nan

$$$$
5CMS_0_R_δ-mArh-x0864_0_A_α
     RDKit          3D

 23 25  0  0  0  0  0  0  0  0999 V2000
   -3.8740   15.4060    1.4700 N   0  0  0  0  0  0  0  0  0  0  0  0
   -2.7030   14.6440    1.0670 C   0  0  1  0  0  0  0  0  0  0  0  0
   -2.5710   14.2570   -0.4390 C   0  0  2  0  0  0  0  0  0  0  0  0
   -1.5360   15.2800    1.5710 N   0  0  0  0  0  0  0  0  0  0  0  0
   -1.1100   14.2870   -0.9420 C   0  0  1  0  0  0  0  0  0  0  0  0
   -3.3190   15.1050   -1.4040 N   0  0  0  0  0  0  0  0  0  0  0  0
   -0.3450   14.5520    1.2740 C   0  0  0  0  0  0  0  0  0  0  0  0
   -1.1620   15.0060   -2.1940 N   0  0  0  0  0  0  0  0  0  0  0  0
   -2.5460   14.8840   -2.6300 C   0  0  0  0  0  0  0  0  0  0  0  0
   -0.0730   14.8320   -0.0910 N   0  0  0  0  0  0  0  0  0  0  0  0
   -0.1620   14.4650   -3.0570 C   0  0  0  0  0  0  0  0  0  0  0  0
    0.2430   13.1830   -2.5160 N   0  0  0  0  0  0  0  0  0  0  0  0
    0.6250   12.3400   -3.3450 C   0  0  0  0  0  0  0  0  0  0  0  0
    0.7600   12.5340   -4.8330 C   0  0  0  0  0  0  0  0  0  0  0  0
    0.9330   11.1520   -2.8300 O   0  0  0  0  0  0  0  0  0  0  0  0
   -0.1400   11.7100   -5.6080 N   0  0  0  0  0  0  0  0  0  0  0  0
   -1.2660   11.1540   -5.0250 C   0  0  0  0  0  0  0  0  0  0  0  0
    0.4600   11.1650   -6.7160 C   0  0  0  0  0  0  0  0  0  0  0  0
    1.5200   11.5660   -7.1620 O   0  0  0  0  0  0  0  0  0  0  0  0
   -1.8640   10.0960   -5.5830 C   0  0  0  0  0  0  0  0  0  0  0  0
   -0.2240   10.0310   -7.3550 C   0  0  0  0  0  0  0  0  0  0  0  0
   -1.3330    9.5300   -6.8000 C   0  0  0  0  0  0  0  0  0  0  0  0
   -2.2340    8.0920   -7.5680 Br  0  0  0  0  0  0  0  0  0  0  0  0
  2  1  1  6
  2  3  1  0
  2  4  1  0
  3  5  1  0
  3  6  1  6
  4  7  1  0
  5  8  1  0
  6  9  1  0
  8  9  1  0
  5 10  1  1
  7 10  1  0
  8 11  1  0
 11 12  1  0
 12 13  2  3
 13 14  1  0
 13 15  1  0
 14 16  1  0
 16 17  1  0
 16 18  1  0
 18 19  2  0
 17 20  2  0
 18 21  1  0
 20 22  1  0
 21 22  2  0
 22 23  1  0
M  END
>  <%Rank>  (182) 
13.816794

>  <N_hits>  (182) 
2

>  <submitter_name>  (182) 
nan

>  <original SMILES>  (182) 
nan

>  <∆G_unbound>  (182) 
1.438517

>  <∆G_bound>  (182) 
-2.111079

>  <regarded>  (182) 
5CMS_0_R_δ,mArh-x0864_0_A_α

>  <ref_pdb>  (182) 
nan

>  <smiles>  (182) 
NC1NCNC2C1NCN2CN=C(O)Cn1ccc(Br)cc1=O

>  <submitter_email>  (182) 
nan

>  <disregarded>  (182) 


>  <LE>  (182) 
-0.15433

>  <submitter_institution>  (182) 
nan

>  <ref_mols>  (182) 
5CMS_0_R,mArh-x0864_0_A

>  <N_constrained_atoms>  (182) 
22.0

>  <ref_url>  (182) 
nan

>  <method>  (182) 
nan

>  <comRMSD>  (182) 
0.467754

>  <N_unconstrained_atoms>  (182) 
1.0

>  <∆∆G>  (182) 
-3.549597

>  <runtime>  (182) 
49.404429

>  <generation_date>  (182) 
nan

$$$$
5CB5_0_B_β-mArh-EU0481_0_A_α
     RDKit          3D

 24 25  0  0  0  0  0  0  0  0999 V2000
   -1.3890   20.4290   -8.4760 O   0  0  0  0  0  0  0  0  0  0  0  0
   -0.2910   19.8530   -7.5730 P   0  0  0  0  0  0  0  0  0  0  0  0
   -1.1980   19.5660   -6.2940 O   0  0  0  0  0  0  0  0  0  0  0  0
    0.5910   21.2460   -7.7680 O   0  0  0  0  0  0  0  0  0  0  0  0
   -0.0180   18.6380   -8.7080 O   0  0  0  0  0  0  0  0  0  0  0  0
   -1.6290   18.0130   -6.1650 P   0  0  0  0  0  0  0  0  0  0  0  0
   -0.3850   16.9230   -5.7790 O   0  0  0  0  0  0  0  0  0  0  0  0
   -2.9760   17.4520   -6.7830 O   0  0  0  0  0  0  0  0  0  0  0  0
   -1.9850   17.9590   -4.6920 O   0  0  0  0  0  0  0  0  0  0  0  0
   -1.6090   16.7730   -4.0570 C   0  0  0  0  0  0  0  0  0  0  0  0
   -2.7500   15.8710   -3.6960 C   0  0  0  0  0  0  0  0  0  0  0  0
   -2.4550   15.0490   -2.4800 C   0  0  0  0  0  0  0  0  0  0  0  0
   -3.4870   15.0080   -1.3920 C   0  0  0  0  0  0  0  0  0  0  0  0
   -3.0490   15.1120   -0.0910 C   0  0  0  0  0  0  0  0  0  0  0  0
   -4.8610   14.8610   -1.5680 C   0  0  0  0  0  0  0  0  0  0  0  0
   -5.7430   14.8090   -0.4850 C   0  0  0  0  0  0  0  0  0  0  0  0
   -3.9160   15.0640    0.9730 C   0  0  0  0  0  0  0  0  0  0  0  0
   -7.0860   14.6590   -0.6190 N   0  0  0  0  0  0  0  0  0  0  0  0
   -5.2730   14.9100    0.8100 C   0  0  0  0  0  0  0  0  0  0  0  0
   -7.9400   14.6080    0.4310 C   0  0  0  0  0  0  0  0  0  0  0  0
   -6.1330   14.8580    1.8850 C   0  0  0  0  0  0  0  0  0  0  0  0
   -7.4990   14.7060    1.7430 C   0  0  0  0  0  0  0  0  0  0  0  0
   -8.4240   14.6600    2.9090 C   0  0  0  0  0  0  0  0  0  0  0  0
   -8.0780   13.5920    3.8360 N   0  0  0  0  0  0  0  0  0  0  0  0
  1  2  1  0
  2  3  1  0
  2  4  1  0
  2  5  1  0
  3  6  1  0
  6  7  1  0
  6  8  1  0
  6  9  1  0
  9 10  1  0
 10 11  1  0
 11 12  1  0
 12 13  1  0
 13 14  2  0
 13 15  1  0
 15 16  2  0
 14 17  1  0
 16 18  1  0
 16 19  1  0
 17 19  2  0
 18 20  2  0
 19 21  1  0
 20 22  1  0
 21 22  2  0
 22 23  1  0
 23 24  1  0
M  CHG  2   4  -1   8  -1
M  END
>  <%Rank>  (183) 
13.89313

>  <N_hits>  (183) 
2

>  <submitter_name>  (183) 
nan

>  <original SMILES>  (183) 
nan

>  <∆G_unbound>  (183) 
0.076714

>  <∆G_bound>  (183) 
-10.27923

>  <regarded>  (183) 
5CB5_0_B_β,mArh-EU0481_0_A_α

>  <ref_pdb>  (183) 
nan

>  <smiles>  (183) 
NCc1cnc2cc(CCCO[PH]([O-])(O)O[PH]([O-])(O)O)ccc2c1

>  <submitter_email>  (183) 
nan

>  <disregarded>  (183) 


>  <LE>  (183) 
-0.431498

>  <submitter_institution>  (183) 
nan

>  <ref_mols>  (183) 
5CB5_0_B,mArh-EU0481_0_A

>  <N_constrained_atoms>  (183) 
21.0

>  <ref_url>  (183) 
nan

>  <method>  (183) 
nan

>  <comRMSD>  (183) 
0.540343

>  <N_unconstrained_atoms>  (183) 
3.0

>  <∆∆G>  (183) 
-10.355944

>  <runtime>  (183) 
59.593019

>  <generation_date>  (183) 
nan

$$$$
mArh-x0104_0_A_β-5L9K_0_A_γ
     RDKit          3D

 17 18  0  0  0  0  0  0  0  0999 V2000
   -6.7350   14.8670    2.5600 N   0  0  0  0  0  0  0  0  0  0  0  0
   -6.1780   14.7670    1.2850 C   0  0  0  0  0  0  0  0  0  0  0  0
   -6.9740   14.6140    0.1570 C   0  0  0  0  0  0  0  0  0  0  0  0
   -4.7990   14.8170    1.0860 C   0  0  0  0  0  0  0  0  0  0  0  0
   -4.1810   14.7200   -0.1140 N   0  0  0  0  0  0  0  0  0  0  0  0
   -6.3770   14.5120   -1.0990 C   0  0  0  0  0  0  0  0  0  0  0  0
   -4.9900   14.5640   -1.1870 C   0  0  0  0  0  0  0  0  0  0  0  0
   -4.4460   14.4370   -2.4620 O   0  0  0  0  0  0  0  0  0  0  0  0
   -3.3530   15.3190   -2.7390 C   0  0  0  0  0  0  0  0  0  0  0  0
   -1.9440   14.6630   -2.8440 C   0  0  2  0  0  0  0  0  0  0  0  0
   -0.9140   15.6060   -3.2200 O   0  0  0  0  0  0  0  0  0  0  0  0
   -1.7960   13.5420   -3.8890 C   0  0  1  0  0  0  0  0  0  0  0  0
   -3.0030   13.0540   -4.4400 O   0  0  0  0  0  0  0  0  0  0  0  0
   -0.8840   15.6110   -4.6460 C   0  0  2  0  0  0  0  0  0  0  0  0
   -0.8540   14.1220   -4.9550 C   0  0  1  0  0  0  0  0  0  0  0  0
    0.3030   16.4300   -5.1430 C   0  0  0  0  0  0  0  0  0  0  0  0
    0.4490   13.5500   -4.7500 O   0  0  0  0  0  0  0  0  0  0  0  0
  1  2  1  0
  2  3  2  0
  2  4  1  0
  4  5  2  0
  3  6  1  0
  5  7  1  0
  6  7  2  0
  7  8  1  0
  8  9  1  0
 10  9  1  6
 10 11  1  0
 10 12  1  0
 12 13  1  6
 11 14  1  0
 12 15  1  0
 14 15  1  0
 14 16  1  1
 15 17  1  1
M  END
>  <%Rank>  (184) 
13.969466

>  <N_hits>  (184) 
2

>  <submitter_name>  (184) 
nan

>  <original SMILES>  (184) 
nan

>  <∆G_unbound>  (184) 
1.82928

>  <∆G_bound>  (184) 
-3.933147

>  <regarded>  (184) 
mArh-x0104_0_A_β,5L9K_0_A_γ

>  <ref_pdb>  (184) 
nan

>  <smiles>  (184) 
CC1OC(COc2ccc(N)cn2)C(O)C1O

>  <submitter_email>  (184) 
nan

>  <disregarded>  (184) 


>  <LE>  (184) 
-0.338966

>  <submitter_institution>  (184) 
nan

>  <ref_mols>  (184) 
mArh-x0104_0_A,5L9K_0_A

>  <N_constrained_atoms>  (184) 
17.0

>  <ref_url>  (184) 
nan

>  <method>  (184) 
nan

>  <comRMSD>  (184) 
0.486619

>  <N_unconstrained_atoms>  (184) 
0.0

>  <∆∆G>  (184) 
-5.762427

>  <runtime>  (184) 
36.208669

>  <generation_date>  (184) 
nan

$$$$
5L9K_0_A_δ-mArh-3ew5_B_0_B_α
     RDKit          3D

 24 25  0  0  0  0  0  0  0  0999 V2000
   -4.1010   15.7250    2.0930 N   0  0  0  0  0  0  0  0  0  0  0  0
   -3.1700   15.0430    1.2050 C   0  0  1  0  0  0  0  0  0  0  0  0
   -3.3790   15.4660   -0.2520 C   0  0  1  0  0  0  0  0  0  0  0  0
   -1.8550   15.3760    1.6390 N   0  0  0  0  0  0  0  0  0  0  0  0
   -2.0210   15.4990   -0.9760 C   0  0  2  0  0  0  0  0  0  0  0  0
   -4.2340   14.5840   -1.0550 N   0  0  0  0  0  0  0  0  0  0  0  0
   -0.7570   14.7630    0.9400 C   0  0  0  0  0  0  0  0  0  0  0  0
   -2.3750   15.1750   -2.3620 N   0  0  0  0  0  0  0  0  0  0  0  0
   -3.8210   14.9530   -2.4030 C   0  0  0  0  0  0  0  0  0  0  0  0
   -1.0870   14.5130   -0.4510 N   0  0  0  0  0  0  0  0  0  0  0  0
   -1.8730   15.9610   -3.5190 C   0  0  0  0  0  0  0  0  0  0  0  0
   -0.4370   16.5470   -3.6450 C   0  0  0  0  0  0  0  0  0  0  0  0
   -0.3360   17.9850   -4.2210 C   0  0  0  0  0  0  0  0  0  0  0  0
    0.1520   18.0960   -5.6790 C   0  0  0  0  0  0  0  0  0  0  0  0
   -0.6890   19.0420   -6.3560 O   0  0  0  0  0  0  0  0  0  0  0  0
   -0.2520   19.7340   -7.7480 P   0  0  2  0  0  0  0  0  0  0  0  0
   -1.4990   20.7390   -8.0130 O   0  0  0  0  0  0  0  0  0  0  0  0
    0.0750   18.7650   -8.8260 O   0  0  0  0  0  0  0  0  0  0  0  0
    0.9640   20.7250   -7.4220 O   0  0  0  0  0  0  0  0  0  0  0  0
   -2.4840   20.8600   -6.9870 C   0  0  0  0  0  0  0  0  0  0  0  0
   -3.6600   21.8100   -7.3130 C   0  0  2  0  0  0  0  0  0  0  0  0
   -5.0330   21.1440   -7.1190 C   0  0  0  0  0  0  0  0  0  0  0  0
   -3.6080   22.2040   -8.6880 O   0  0  0  0  0  0  0  0  0  0  0  0
   -5.6940   21.5670   -5.9120 O   0  0  0  0  0  0  0  0  0  0  0  0
  2  1  1  1
  2  3  1  0
  2  4  1  0
  3  5  1  0
  3  6  1  6
  4  7  1  0
  5  8  1  0
  6  9  1  0
  8  9  1  0
  5 10  1  1
  7 10  1  0
  8 11  1  0
 11 12  1  0
 12 13  1  0
 13 14  1  0
 14 15  1  0
 15 16  1  0
 16 17  1  0
 16 18  2  0
 16 19  1  1
 17 20  1  0
 20 21  1  0
 21 22  1  0
 21 23  1  6
 22 24  1  0
M  END
>  <%Rank>  (185) 
14.045802

>  <N_hits>  (185) 
2

>  <submitter_name>  (185) 
nan

>  <original SMILES>  (185) 
nan

>  <∆G_unbound>  (185) 
1.921325

>  <∆G_bound>  (185) 
-12.806868

>  <regarded>  (185) 
5L9K_0_A_δ,mArh-3ew5_B_0_B_α

>  <ref_pdb>  (185) 
nan

>  <smiles>  (185) 
NC1NCNC2C1NCN2CCCCOP(=O)(O)OC[C@@H](O)CO

>  <submitter_email>  (185) 
nan

>  <disregarded>  (185) 


>  <LE>  (185) 
-0.613675

>  <submitter_institution>  (185) 
nan

>  <ref_mols>  (185) 
5L9K_0_A,mArh-3ew5_B_0_B

>  <N_constrained_atoms>  (185) 
20.0

>  <ref_url>  (185) 
nan

>  <method>  (185) 
nan

>  <comRMSD>  (185) 
0.585028

>  <N_unconstrained_atoms>  (185) 
4.0

>  <∆∆G>  (185) 
-14.728194

>  <runtime>  (185) 
60.590962

>  <generation_date>  (185) 
nan

$$$$
mArh-x0895_0_A_α-mArh-6mea_B_0_B_γ
     RDKit          3D

 18 19  0  0  0  0  0  0  0  0999 V2000
   -1.4840   14.4790    1.7720 O   0  0  0  0  0  0  0  0  0  0  0  0
   -2.5520   14.6260    1.1980 C   0  0  0  0  0  0  0  0  0  0  0  0
   -3.9050   14.9100    1.8280 C   0  0  0  0  0  0  0  0  0  0  0  0
   -2.8070   14.5730   -0.1620 N   0  0  0  0  0  0  0  0  0  0  0  0
   -4.4600   15.6710    0.7450 N   0  0  0  0  0  0  0  0  0  0  0  0
   -4.0500   15.0800   -0.3940 C   0  0  0  0  0  0  0  0  0  0  0  0
   -4.7940   15.0520   -1.4380 N   0  0  0  0  0  0  0  0  0  0  0  0
   -4.4980   14.4300   -2.7240 C   0  0  0  0  0  0  0  0  0  0  0  0
   -3.0140   14.3530   -3.0020 C   0  0  0  0  0  0  0  0  0  0  0  0
   -2.6230   12.9540   -3.4850 C   0  0  0  0  0  0  0  0  0  0  0  0
   -1.5040   13.0770   -4.3620 O   0  0  0  0  0  0  0  0  0  0  0  0
   -0.9240   14.3890   -4.2740 C   0  0  1  0  0  0  0  0  0  0  0  0
   -0.3750   14.6860   -2.8860 C   0  0  0  0  0  0  0  0  0  0  0  0
    0.3740   14.4350   -5.0580 C   0  0  2  0  0  0  0  0  0  0  0  0
    1.1480   13.2520   -4.9170 O   0  0  0  0  0  0  0  0  0  0  0  0
    0.6040   15.7200   -3.0640 O   0  0  0  0  0  0  0  0  0  0  0  0
    1.0280   15.6750   -4.4430 C   0  0  2  0  0  0  0  0  0  0  0  0
    0.6440   16.9760   -5.1290 C   0  0  0  0  0  0  0  0  0  0  0  0
  1  2  2  0
  2  3  1  0
  2  4  1  0
  3  5  1  0
  4  6  1  0
  5  6  1  0
  6  7  2  3
  7  8  1  0
  8  9  1  0
  9 10  1  0
 10 11  1  0
 12 11  1  1
 12 13  1  0
 12 14  1  0
 14 15  1  1
 13 16  1  0
 14 17  1  0
 16 17  1  0
 17 18  1  6
M  END
>  <%Rank>  (186) 
14.122137

>  <N_hits>  (186) 
2

>  <submitter_name>  (186) 
nan

>  <original SMILES>  (186) 
nan

>  <∆G_unbound>  (186) 
0.145552

>  <∆G_bound>  (186) 
-5.503623

>  <regarded>  (186) 
mArh-x0895_0_A_α,mArh-6mea_B_0_B_γ

>  <ref_pdb>  (186) 
nan

>  <smiles>  (186) 
CC1OCC(OCCCN=C2NCC(=O)N2)C1O

>  <submitter_email>  (186) 
nan

>  <disregarded>  (186) 


>  <LE>  (186) 
-0.313843

>  <submitter_institution>  (186) 
nan

>  <ref_mols>  (186) 
mArh-x0895_0_A,mArh-6mea_B_0_B

>  <N_constrained_atoms>  (186) 
15.0

>  <ref_url>  (186) 
nan

>  <method>  (186) 
nan

>  <comRMSD>  (186) 
0.328171

>  <N_unconstrained_atoms>  (186) 
3.0

>  <∆∆G>  (186) 
-5.649175

>  <runtime>  (186) 
33.106939

>  <generation_date>  (186) 
nan

$$$$
5CB5_0_N_δ-mArh-x0587_0_A_α
     RDKit          3D

 22 24  0  0  0  0  0  0  0  0999 V2000
   -3.6750   15.3260    1.8240 N   0  0  0  0  0  0  0  0  0  0  0  0
   -2.4870   15.4070    1.0110 C   0  0  2  0  0  0  0  0  0  0  0  0
   -2.5980   14.8080   -0.3770 C   0  0  2  0  0  0  0  0  0  0  0  0
   -1.4120   14.7910    1.7390 N   0  0  0  0  0  0  0  0  0  0  0  0
   -1.2630   15.2510   -0.9430 C   0  0  2  0  0  0  0  0  0  0  0  0
   -3.5100   15.3330   -1.3820 N   0  0  0  0  0  0  0  0  0  0  0  0
   -0.1380   14.5770    1.0800 C   0  0  0  0  0  0  0  0  0  0  0  0
   -1.4100   14.9310   -2.3330 N   0  0  0  0  0  0  0  0  0  0  0  0
   -2.7690   15.3870   -2.6260 C   0  0  0  0  0  0  0  0  0  0  0  0
   -0.1500   14.5600   -0.3690 N   0  0  0  0  0  0  0  0  0  0  0  0
   -4.7590   14.6000   -1.5410 C   0  0  0  0  0  0  0  0  0  0  0  0
   -4.4330   13.3160   -1.8980 F   0  0  0  0  0  0  0  0  0  0  0  0
   -5.3240   15.1180   -2.6710 F   0  0  0  0  0  0  0  0  0  0  0  0
   -5.7410   14.6430   -0.3500 C   0  0  0  0  0  0  0  0  0  0  0  0
   -7.0720   14.5700   -0.6010 N   0  0  0  0  0  0  0  0  0  0  0  0
   -5.2290   14.7610    0.8900 N   0  0  0  0  0  0  0  0  0  0  0  0
   -7.9020   14.6350    0.4670 C   0  0  0  0  0  0  0  0  0  0  0  0
   -6.0970   14.8210    1.9150 C   0  0  0  0  0  0  0  0  0  0  0  0
   -7.4570   14.7690    1.7660 C   0  0  0  0  0  0  0  0  0  0  0  0
   -8.3970   14.8590    2.8890 C   0  0  0  0  0  0  0  0  0  0  0  0
   -7.8750   14.8170    4.1470 N   0  0  0  0  0  0  0  0  0  0  0  0
   -9.5990   14.9880    2.6970 O   0  0  0  0  0  0  0  0  0  0  0  0
  2  1  1  1
  2  3  1  0
  2  4  1  0
  3  5  1  0
  3  6  1  6
  4  7  1  0
  5  8  1  6
  6  9  1  0
  8  9  1  0
  5 10  1  0
  7 10  1  0
  6 11  1  0
 11 12  1  0
 11 13  1  0
 11 14  1  0
 14 15  2  0
 14 16  1  0
 15 17  1  0
 16 18  2  0
 17 19  2  0
 18 19  1  0
 19 20  1  0
 20 21  1  0
 20 22  2  0
M  END
>  <%Rank>  (187) 
14.198473

>  <N_hits>  (187) 
2

>  <submitter_name>  (187) 
nan

>  <original SMILES>  (187) 
nan

>  <∆G_unbound>  (187) 
2.976553

>  <∆G_bound>  (187) 
1.090807

>  <regarded>  (187) 
5CB5_0_N_δ,mArh-x0587_0_A_α

>  <ref_pdb>  (187) 
nan

>  <smiles>  (187) 
NC(=O)c1cnc(C(F)(F)N2CNC3NCNC(N)C32)nc1

>  <submitter_email>  (187) 
nan

>  <disregarded>  (187) 


>  <LE>  (187) 
-0.085716

>  <submitter_institution>  (187) 
nan

>  <ref_mols>  (187) 
5CB5_0_N,mArh-x0587_0_A

>  <N_constrained_atoms>  (187) 
22.0

>  <ref_url>  (187) 
nan

>  <method>  (187) 
nan

>  <comRMSD>  (187) 
0.457388

>  <N_unconstrained_atoms>  (187) 
0.0

>  <∆∆G>  (187) 
-1.885746

>  <runtime>  (187) 
33.913697

>  <generation_date>  (187) 
nan

$$$$
5LW0_1_B_γ-6WOJ_0_C_β
     RDKit          3D

 16 16  0  0  0  0  0  0  0  0999 V2000
   -1.4270   12.4200   -3.8560 O   0  0  0  0  0  0  0  0  0  0  0  0
   -0.3770   13.2860   -3.5700 C   0  0  2  0  0  0  0  0  0  0  0  0
   -0.7530   14.3710   -2.5710 C   0  0  0  0  0  0  0  0  0  0  0  0
    0.0960   14.0670   -4.7790 C   0  0  2  0  0  0  0  0  0  0  0  0
    1.4920   14.0020   -4.7130 O   0  0  0  0  0  0  0  0  0  0  0  0
   -0.2060   15.5430   -3.1190 O   0  0  0  0  0  0  0  0  0  0  0  0
   -0.4700   15.4150   -4.4680 C   0  0  1  0  0  0  0  0  0  0  0  0
   -0.0160   16.6630   -5.2670 C   0  0  0  0  0  0  0  0  0  0  0  0
   -1.2750   17.8610   -5.6320 P   0  0  0  0  0  0  0  0  0  0  0  0
   -0.4050   19.0780   -6.0300 O   0  0  0  0  0  0  0  0  0  0  0  0
   -1.7270   18.9070   -4.3940 O   0  0  0  0  0  0  0  0  0  0  0  0
   -2.1990   17.9330   -6.9520 O   0  0  0  0  0  0  0  0  0  0  0  0
    0.0540   19.5850   -7.4880 P   0  0  0  0  0  0  0  0  0  0  0  0
   -1.3010   20.2050   -7.8680 O   0  0  0  0  0  0  0  0  0  0  0  0
    0.7390   21.1070   -7.7340 O   0  0  0  0  0  0  0  0  0  0  0  0
    0.0620   18.5130   -8.7270 O   0  0  0  0  0  0  0  0  0  0  0  0
  2  1  1  6
  2  3  1  0
  2  4  1  0
  4  5  1  1
  3  6  1  0
  4  7  1  0
  6  7  1  0
  7  8  1  6
  8  9  1  0
  9 10  1  0
  9 11  1  0
  9 12  1  0
 10 13  1  0
 13 14  1  0
 13 15  1  0
 13 16  1  0
M  CHG  2  11  -1  15  -1
M  END
>  <%Rank>  (188) 
14.274809

>  <N_hits>  (188) 
2

>  <submitter_name>  (188) 
nan

>  <original SMILES>  (188) 
nan

>  <∆G_unbound>  (188) 
0.683631

>  <∆G_bound>  (188) 
-7.506639

>  <regarded>  (188) 
5LW0_1_B_γ,6WOJ_0_C_β

>  <ref_pdb>  (188) 
nan

>  <smiles>  (188) 
[O-][PH](O)(O)O[PH]([O-])(O)CC1OCC(O)C1O

>  <submitter_email>  (188) 
nan

>  <disregarded>  (188) 


>  <LE>  (188) 
-0.511892

>  <submitter_institution>  (188) 
nan

>  <ref_mols>  (188) 
5LW0_1_B,6WOJ_0_C

>  <N_constrained_atoms>  (188) 
16.0

>  <ref_url>  (188) 
nan

>  <method>  (188) 
nan

>  <comRMSD>  (188) 
0.551964

>  <N_unconstrained_atoms>  (188) 
0.0

>  <∆∆G>  (188) 
-8.19027

>  <runtime>  (188) 
24.277092

>  <generation_date>  (188) 
nan

$$$$
mArh-x0371_0_A_β-mArh-5cb5_I_0_I_β
     RDKit          3D

 22 23  0  0  0  0  0  0  0  0999 V2000
   -8.4390   14.3710    1.3150 C   0  0  0  0  0  0  0  0  0  0  0  0
   -7.1040   14.6060    0.7190 C   0  0  0  0  0  0  0  0  0  0  0  0
   -5.9770   14.6710    1.4940 N   0  0  0  0  0  0  0  0  0  0  0  0
   -6.8050   14.7790   -0.5610 N   0  0  0  0  0  0  0  0  0  0  0  0
   -4.9120   14.8960    0.6830 C   0  0  0  0  0  0  0  0  0  0  0  0
   -5.4360   14.9560   -0.6020 C   0  0  0  0  0  0  0  0  0  0  0  0
   -3.5730   15.0400    0.9880 C   0  0  0  0  0  0  0  0  0  0  0  0
   -4.5470   15.1690   -1.6830 C   0  0  0  0  0  0  0  0  0  0  0  0
   -2.7170   15.2420   -0.0730 C   0  0  0  0  0  0  0  0  0  0  0  0
   -3.1620   15.3020   -1.3900 C   0  0  0  0  0  0  0  0  0  0  0  0
   -2.0530   15.4980   -2.3890 C   0  0  0  0  0  0  0  0  0  0  0  0
   -2.3680   16.0250   -3.7650 C   0  0  0  0  0  0  0  0  0  0  0  0
   -1.3060   17.0170   -4.1940 C   0  0  0  0  0  0  0  0  0  0  0  0
   -1.9060   18.1780   -4.7110 O   0  0  0  0  0  0  0  0  0  0  0  0
   -1.6370   18.2580   -6.2660 P   0  0  0  0  0  0  0  0  0  0  0  0
   -1.2760   19.7360   -6.6300 O   0  0  0  0  0  0  0  0  0  0  0  0
   -0.2050   17.5490   -6.3320 O   0  0  0  0  0  0  0  0  0  0  0  0
   -2.6460   17.5700   -7.0620 O   0  0  0  0  0  0  0  0  0  0  0  0
   -0.3300   20.0260   -7.8490 P   0  0  0  0  0  0  0  0  0  0  0  0
   -1.2950   20.8130   -8.8280 O   0  0  0  0  0  0  0  0  0  0  0  0
    0.9850   20.6530   -7.5940 O   0  0  0  0  0  0  0  0  0  0  0  0
   -0.2010   18.6450   -8.6650 O   0  0  0  0  0  0  0  0  0  0  0  0
  1  2  1  0
  2  3  1  0
  2  4  2  0
  3  5  1  0
  4  6  1  0
  5  6  2  0
  5  7  1  0
  6  8  1  0
  7  9  2  0
  8 10  2  0
  9 10  1  0
 10 11  1  0
 11 12  1  0
 12 13  1  0
 13 14  1  0
 14 15  1  0
 15 16  1  0
 15 17  1  0
 15 18  2  0
 16 19  1  0
 19 20  1  0
 19 21  2  0
 19 22  1  0
M  END
>  <%Rank>  (189) 
14.351145

>  <N_hits>  (189) 
2

>  <submitter_name>  (189) 
nan

>  <original SMILES>  (189) 
nan

>  <∆G_unbound>  (189) 
0.53888

>  <∆G_bound>  (189) 
-11.478697

>  <regarded>  (189) 
mArh-x0371_0_A_β,mArh-5cb5_I_0_I_β

>  <ref_pdb>  (189) 
nan

>  <smiles>  (189) 
Cc1nc2cc(CCCOP(=O)(O)OP(=O)(O)O)ccc2[nH]1

>  <submitter_email>  (189) 
nan

>  <disregarded>  (189) 


>  <LE>  (189) 
-0.546254

>  <submitter_institution>  (189) 
nan

>  <ref_mols>  (189) 
mArh-x0371_0_A,mArh-5cb5_I_0_I

>  <N_constrained_atoms>  (189) 
19.0

>  <ref_url>  (189) 
nan

>  <method>  (189) 
nan

>  <comRMSD>  (189) 
0.555715

>  <N_unconstrained_atoms>  (189) 
3.0

>  <∆∆G>  (189) 
-12.017577

>  <runtime>  (189) 
37.638125

>  <generation_date>  (189) 
nan

$$$$
5CB5_0_F_δ-3EW5_0_C_α
     RDKit          3D

 24 25  0  0  0  0  0  0  0  0999 V2000
   -3.6190   15.0370    1.7460 N   0  0  0  0  0  0  0  0  0  0  0  0
   -2.3780   15.3090    1.0390 C   0  0  2  0  0  0  0  0  0  0  0  0
   -2.4750   14.7510   -0.2920 C   0  0  2  0  0  0  0  0  0  0  0  0
   -1.2450   14.7610    1.6640 N   0  0  0  0  0  0  0  0  0  0  0  0
   -1.2440   15.3490   -0.9940 C   0  0  2  0  0  0  0  0  0  0  0  0
   -3.5270   15.1790   -1.1120 N   0  0  0  0  0  0  0  0  0  0  0  0
   -0.0740   14.5740    0.9230 C   0  0  0  0  0  0  0  0  0  0  0  0
   -1.5710   15.2460   -2.3310 N   0  0  0  0  0  0  0  0  0  0  0  0
   -2.9420   14.9580   -2.4350 C   0  0  0  0  0  0  0  0  0  0  0  0
   -0.1280   14.6490   -0.4870 N   0  0  0  0  0  0  0  0  0  0  0  0
   -0.8860   15.9270   -3.3150 C   0  0  0  0  0  0  0  0  0  0  0  0
   -1.6410   16.6720   -4.3710 C   0  0  0  0  0  0  0  0  0  0  0  0
   -1.0320   18.0090   -4.7120 C   0  0  0  0  0  0  0  0  0  0  0  0
   -0.2960   17.9170   -6.0510 C   0  0  0  0  0  0  0  0  0  0  0  0
   -1.1460   18.4270   -6.9900 O   0  0  0  0  0  0  0  0  0  0  0  0
   -0.7450   19.8990   -7.5830 P   0  0  0  0  0  0  0  0  0  0  0  0
   -1.8650   20.8780   -8.2460 O   0  0  0  0  0  0  0  0  0  0  0  0
    0.7990   20.4890   -7.3940 O   0  0  0  0  0  0  0  0  0  0  0  0
   -0.2520   19.2860   -8.8700 O   0  0  0  0  0  0  0  0  0  0  0  0
   -2.4660   21.7530   -7.3800 C   0  0  0  0  0  0  0  0  0  0  0  0
   -3.9380   21.8940   -7.7130 C   0  0  2  0  0  0  0  0  0  0  0  0
   -4.1650   23.2210   -8.3910 C   0  0  0  0  0  0  0  0  0  0  0  0
   -4.7240   21.8610   -6.5700 O   0  0  0  0  0  0  0  0  0  0  0  0
   -4.7170   23.0210   -9.6630 O   0  0  0  0  0  0  0  0  0  0  0  0
  2  1  1  1
  2  3  1  0
  2  4  1  0
  3  5  1  0
  3  6  1  6
  4  7  1  0
  5  8  1  0
  6  9  1  0
  8  9  1  0
  5 10  1  6
  7 10  1  0
  8 11  1  0
 11 12  1  0
 12 13  1  0
 13 14  1  0
 14 15  1  0
 15 16  1  0
 16 17  1  0
 16 18  1  0
 16 19  1  0
 17 20  1  0
 20 21  1  0
 21 22  1  0
 21 23  1  1
 22 24  1  0
M  CHG  1  19  -1
M  END
>  <%Rank>  (190) 
14.427481

>  <N_hits>  (190) 
2

>  <submitter_name>  (190) 
nan

>  <original SMILES>  (190) 
nan

>  <∆G_unbound>  (190) 
0.995964

>  <∆G_bound>  (190) 
-9.001943

>  <regarded>  (190) 
5CB5_0_F_δ,3EW5_0_C_α

>  <ref_pdb>  (190) 
nan

>  <smiles>  (190) 
NC1NCNC2C1NCN2CCCCO[PH]([O-])(O)OC[C@@H](O)CO

>  <submitter_email>  (190) 
nan

>  <disregarded>  (190) 


>  <LE>  (190) 
-0.416579

>  <submitter_institution>  (190) 
nan

>  <ref_mols>  (190) 
5CB5_0_F,3EW5_0_C

>  <N_constrained_atoms>  (190) 
20.0

>  <ref_url>  (190) 
nan

>  <method>  (190) 
nan

>  <comRMSD>  (190) 
0.490526

>  <N_unconstrained_atoms>  (190) 
4.0

>  <∆∆G>  (190) 
-9.997907

>  <runtime>  (190) 
44.235816

>  <generation_date>  (190) 
nan

$$$$
5CB5_0_P_β-mArh-x1018_0_A_α
     RDKit          3D

 22 23  0  0  0  0  0  0  0  0999 V2000
   -1.7620   20.7220   -7.7460 O   0  0  0  0  0  0  0  0  0  0  0  0
   -0.2720   20.0350   -7.8990 P   0  0  0  0  0  0  0  0  0  0  0  0
   -0.3550   19.2490   -6.5900 O   0  0  0  0  0  0  0  0  0  0  0  0
    1.0950   20.8690   -7.4760 O   0  0  0  0  0  0  0  0  0  0  0  0
   -0.1620   18.6670   -8.7830 O   0  0  0  0  0  0  0  0  0  0  0  0
   -1.6480   18.4070   -6.4000 P   0  0  0  0  0  0  0  0  0  0  0  0
   -0.8430   17.1800   -5.5710 O   0  0  0  0  0  0  0  0  0  0  0  0
   -2.7480   17.3850   -6.6400 O   0  0  0  0  0  0  0  0  0  0  0  0
   -2.4360   19.4660   -5.4780 O   0  0  0  0  0  0  0  0  0  0  0  0
   -1.8220   16.3610   -5.0010 C   0  0  0  0  0  0  0  0  0  0  0  0
   -1.3890   15.8390   -3.6440 C   0  0  0  0  0  0  0  0  0  0  0  0
   -2.5410   15.8300   -2.6930 C   0  0  0  0  0  0  0  0  0  0  0  0
   -3.0760   14.6420   -2.1690 N   0  0  0  0  0  0  0  0  0  0  0  0
   -2.9300   14.4830   -0.8120 N   0  0  0  0  0  0  0  0  0  0  0  0
   -4.4300   14.4630   -2.4540 N   0  0  0  0  0  0  0  0  0  0  0  0
   -5.1170   14.7400   -1.2290 N   0  0  0  0  0  0  0  0  0  0  0  0
   -4.0950   15.1700   -0.3170 C   0  0  1  0  0  0  0  0  0  0  0  0
   -6.4220   14.6670   -0.8810 N   0  0  0  0  0  0  0  0  0  0  0  0
   -4.4900   14.9940    1.0560 C   0  0  0  0  0  0  0  0  0  0  0  0
   -6.7990   14.6690    0.3460 C   0  0  0  0  0  0  0  0  0  0  0  0
   -5.7590   14.7640    1.3510 C   0  0  0  0  0  0  0  0  0  0  0  0
   -8.5040   14.5720    0.8190 Cl  0  0  0  0  0  0  0  0  0  0  0  0
  1  2  1  0
  2  3  1  0
  2  4  1  0
  2  5  1  0
  3  6  1  0
  6  7  1  0
  6  8  1  0
  6  9  1  0
  7 10  1  0
 10 11  1  0
 11 12  1  0
 12 13  1  0
 13 14  1  0
 13 15  1  0
 15 16  1  0
 14 17  1  0
 16 17  1  0
 16 18  1  0
 17 19  1  1
 18 20  2  0
 19 21  2  0
 20 21  1  0
 20 22  1  0
M  CHG  2   4  -1   8  -1
M  END
>  <%Rank>  (191) 
14.503817

>  <N_hits>  (191) 
2

>  <submitter_name>  (191) 
nan

>  <original SMILES>  (191) 
nan

>  <∆G_unbound>  (191) 
2.456725

>  <∆G_bound>  (191) 
-8.437343

>  <regarded>  (191) 
5CB5_0_P_β,mArh-x1018_0_A_α

>  <ref_pdb>  (191) 
nan

>  <smiles>  (191) 
[O-][PH](O)(O)O[PH]([O-])(O)OCCCN1NC2C=CC(Cl)=NN2N1

>  <submitter_email>  (191) 
nan

>  <disregarded>  (191) 


>  <LE>  (191) 
-0.495185

>  <submitter_institution>  (191) 
nan

>  <ref_mols>  (191) 
5CB5_0_P,mArh-x1018_0_A

>  <N_constrained_atoms>  (191) 
19.0

>  <ref_url>  (191) 
nan

>  <method>  (191) 
nan

>  <comRMSD>  (191) 
0.531789

>  <N_unconstrained_atoms>  (191) 
3.0

>  <∆∆G>  (191) 
-10.894068

>  <runtime>  (191) 
39.831053

>  <generation_date>  (191) 
nan

$$$$
5CB5_0_E_α-mArh-5dus_0_A_β
     RDKit          3D

 17 17  0  0  0  0  0  0  0  0999 V2000
   -1.6150   21.7800   -7.9570 C   0  0  0  0  0  0  0  0  0  0  0  0
   -0.6120   20.3030   -7.6950 P   0  0  2  0  0  0  0  0  0  0  0  0
   -1.0950   19.7190   -6.2990 O   0  0  0  0  0  0  0  0  0  0  0  0
   -2.9410   21.8050   -8.7190 C   0  0  1  0  0  0  0  0  0  0  0  0
    0.8470   20.5810   -7.6610 O   0  0  0  0  0  0  0  0  0  0  0  0
   -0.9660   19.0840   -8.6830 O   0  0  0  0  0  0  0  0  0  0  0  0
   -3.9460   21.0740   -8.0160 O   0  0  0  0  0  0  0  0  0  0  0  0
   -3.5600   23.2060   -8.8340 C   0  0  1  0  0  0  0  0  0  0  0  0
   -4.3830   23.3610   -9.9950 O   0  0  0  0  0  0  0  0  0  0  0  0
   -1.6020   18.2500   -5.9910 P   0  0  0  0  0  0  0  0  0  0  0  0
   -4.5620   21.9300   -7.0480 C   0  0  1  0  0  0  0  0  0  0  0  0
   -4.4000   23.3730   -7.5710 C   0  0  2  0  0  0  0  0  0  0  0  0
   -5.9120   21.5380   -6.7870 O   0  0  0  0  0  0  0  0  0  0  0  0
   -5.6520   23.9660   -7.9420 O   0  0  0  0  0  0  0  0  0  0  0  0
   -0.3160   17.3270   -5.8630 O   0  0  0  0  0  0  0  0  0  0  0  0
   -2.6940   17.6580   -6.7980 O   0  0  0  0  0  0  0  0  0  0  0  0
   -1.9340   18.4030   -4.4620 O   0  0  0  0  0  0  0  0  0  0  0  0
  1  2  1  0
  2  3  1  0
  4  1  1  1
  2  5  2  0
  2  6  1  6
  4  7  1  0
  4  8  1  0
  8  9  1  6
  3 10  1  0
  7 11  1  0
  8 12  1  0
 11 12  1  0
 11 13  1  6
 12 14  1  6
 10 15  1  0
 10 16  2  0
 10 17  1  0
M  END
>  <%Rank>  (192) 
14.580153

>  <N_hits>  (192) 
2

>  <submitter_name>  (192) 
nan

>  <original SMILES>  (192) 
nan

>  <∆G_unbound>  (192) 
1.703844

>  <∆G_bound>  (192) 
-11.314

>  <regarded>  (192) 
5CB5_0_E_α,mArh-5dus_0_A_β

>  <ref_pdb>  (192) 
nan

>  <smiles>  (192) 
O=P(O)(O)OP(=O)(O)CC1OC(O)C(O)C1O

>  <submitter_email>  (192) 
nan

>  <disregarded>  (192) 


>  <LE>  (192) 
-0.765756

>  <submitter_institution>  (192) 
nan

>  <ref_mols>  (192) 
5CB5_0_E,mArh-5dus_0_A

>  <N_constrained_atoms>  (192) 
17.0

>  <ref_url>  (192) 
nan

>  <method>  (192) 
nan

>  <comRMSD>  (192) 
0.70461

>  <N_unconstrained_atoms>  (192) 
0.0

>  <∆∆G>  (192) 
-13.017844

>  <runtime>  (192) 
34.730192

>  <generation_date>  (192) 
nan

$$$$
5CMS_0_G_β-mArh-3ew5_B_0_B_α
     RDKit          3D

 19 19  0  0  0  0  0  0  0  0999 V2000
   -2.0660   13.3340   -4.4970 O   0  0  0  0  0  0  0  0  0  0  0  0
   -0.7610   13.6510   -4.0400 C   0  0  2  0  0  0  0  0  0  0  0  0
   -0.7620   14.4400   -2.7310 C   0  0  0  0  0  0  0  0  0  0  0  0
   -0.0260   14.5730   -5.0010 C   0  0  2  0  0  0  0  0  0  0  0  0
    1.3640   14.2010   -4.9200 O   0  0  0  0  0  0  0  0  0  0  0  0
   -0.1280   15.7010   -2.9920 O   0  0  0  0  0  0  0  0  0  0  0  0
   -0.3290   15.9480   -4.3870 C   0  0  1  0  0  0  0  0  0  0  0  0
    0.3900   17.2430   -4.8240 C   0  0  0  0  0  0  0  0  0  0  0  0
    0.0410   17.7830   -6.2070 C   0  0  0  0  0  0  0  0  0  0  0  0
   -0.3690   19.1360   -6.2750 O   0  0  0  0  0  0  0  0  0  0  0  0
   -0.1700   19.8090   -7.7210 P   0  0  2  0  0  0  0  0  0  0  0  0
   -1.4370   20.7850   -7.9350 O   0  0  0  0  0  0  0  0  0  0  0  0
    0.1150   18.8220   -8.7970 O   0  0  0  0  0  0  0  0  0  0  0  0
    1.0350   20.8460   -7.5030 O   0  0  0  0  0  0  0  0  0  0  0  0
   -2.4880   20.8020   -6.9780 C   0  0  0  0  0  0  0  0  0  0  0  0
   -3.4980   21.9340   -7.2360 C   0  0  2  0  0  0  0  0  0  0  0  0
   -4.5860   22.0420   -6.1510 C   0  0  0  0  0  0  0  0  0  0  0  0
   -4.1320   21.8010   -8.5220 O   0  0  0  0  0  0  0  0  0  0  0  0
   -5.8490   21.4700   -6.5070 O   0  0  0  0  0  0  0  0  0  0  0  0
  2  1  1  6
  2  3  1  0
  2  4  1  0
  4  5  1  1
  3  6  1  0
  4  7  1  0
  6  7  1  0
  7  8  1  6
  8  9  1  0
  9 10  1  0
 10 11  1  0
 11 12  1  0
 11 13  2  0
 11 14  1  1
 12 15  1  0
 15 16  1  0
 16 17  1  0
 16 18  1  6
 17 19  1  0
M  END
>  <%Rank>  (193) 
14.656489

>  <N_hits>  (193) 
2

>  <submitter_name>  (193) 
nan

>  <original SMILES>  (193) 
nan

>  <∆G_unbound>  (193) 
2.294943

>  <∆G_bound>  (193) 
-11.69518

>  <regarded>  (193) 
5CMS_0_G_β,mArh-3ew5_B_0_B_α

>  <ref_pdb>  (193) 
nan

>  <smiles>  (193) 
O=P(O)(OCCC1OCC(O)C1O)OC[C@@H](O)CO

>  <submitter_email>  (193) 
nan

>  <disregarded>  (193) 


>  <LE>  (193) 
-0.736322

>  <submitter_institution>  (193) 
nan

>  <ref_mols>  (193) 
5CMS_0_G,mArh-3ew5_B_0_B

>  <N_constrained_atoms>  (193) 
18.0

>  <ref_url>  (193) 
nan

>  <method>  (193) 
nan

>  <comRMSD>  (193) 
0.684097

>  <N_unconstrained_atoms>  (193) 
1.0

>  <∆∆G>  (193) 
-13.990123

>  <runtime>  (193) 
40.426455

>  <generation_date>  (193) 
nan

$$$$
6WOJ_0_D_δ-mArh-x0950_0_A_α
     RDKit          3D

 17 18  0  0  0  0  0  0  0  0999 V2000
   -3.9310   15.2820    1.7010 N   0  0  0  0  0  0  0  0  0  0  0  0
   -2.8640   14.6400    0.9600 C   0  0  1  0  0  0  0  0  0  0  0  0
   -2.6900   15.2470   -0.4360 C   0  0  1  0  0  0  0  0  0  0  0  0
   -1.6840   14.8580    1.7480 N   0  0  0  0  0  0  0  0  0  0  0  0
   -1.2350   15.0220   -0.8820 C   0  0  2  0  0  0  0  0  0  0  0  0
   -3.5220   14.6860   -1.5140 N   0  0  0  0  0  0  0  0  0  0  0  0
   -0.4510   14.2910    1.2450 C   0  0  0  0  0  0  0  0  0  0  0  0
   -1.3180   14.5670   -2.2560 N   0  0  0  0  0  0  0  0  0  0  0  0
   -2.6750   14.8900   -2.6750 C   0  0  0  0  0  0  0  0  0  0  0  0
   -0.5420   13.9740   -0.1520 N   0  0  0  0  0  0  0  0  0  0  0  0
   -1.0810   13.1340   -2.3270 C   0  0  0  0  0  0  0  0  0  0  0  0
    0.3160   12.8470   -2.1940 O   0  0  0  0  0  0  0  0  0  0  0  0
    0.6990   12.0100   -3.1680 C   0  0  0  0  0  0  0  0  0  0  0  0
    1.3760   12.7590   -4.3190 C   0  0  1  0  0  0  0  0  0  0  0  0
    0.5050   10.8000   -3.1450 O   0  0  0  0  0  0  0  0  0  0  0  0
    2.8690   12.9240   -4.0900 C   0  0  0  0  0  0  0  0  0  0  0  0
    1.1530   12.1000   -5.5670 O   0  0  0  0  0  0  0  0  0  0  0  0
  2  1  1  1
  2  3  1  0
  2  4  1  0
  3  5  1  0
  3  6  1  6
  4  7  1  0
  5  8  1  0
  6  9  1  0
  8  9  1  0
  5 10  1  1
  7 10  1  0
  8 11  1  0
 11 12  1  0
 12 13  1  0
 13 14  1  0
 13 15  2  0
 14 16  1  1
 14 17  1  0
M  END
>  <%Rank>  (194) 
14.732824

>  <N_hits>  (194) 
2

>  <submitter_name>  (194) 
nan

>  <original SMILES>  (194) 
nan

>  <∆G_unbound>  (194) 
0.656898

>  <∆G_bound>  (194) 
-3.405094

>  <regarded>  (194) 
6WOJ_0_D_δ,mArh-x0950_0_A_α

>  <ref_pdb>  (194) 
nan

>  <smiles>  (194) 
C[C@@H](O)C(=O)OCN1CNC2C(N)NCNC21

>  <submitter_email>  (194) 
nan

>  <disregarded>  (194) 


>  <LE>  (194) 
-0.238941

>  <submitter_institution>  (194) 
nan

>  <ref_mols>  (194) 
6WOJ_0_D,mArh-x0950_0_A

>  <N_constrained_atoms>  (194) 
16.0

>  <ref_url>  (194) 
nan

>  <method>  (194) 
nan

>  <comRMSD>  (194) 
0.391039

>  <N_unconstrained_atoms>  (194) 
1.0

>  <∆∆G>  (194) 
-4.061992

>  <runtime>  (194) 
33.290944

>  <generation_date>  (194) 
nan

$$$$
mArh-5cb5_B_0_B_α-mArh-6woj_C_0_C_γ
     RDKit          3D

 22 23  0  0  0  0  0  0  0  0999 V2000
   -2.0470   21.7910   -8.2630 C   0  0  0  0  0  0  0  0  0  0  0  0
   -3.4390   21.9850   -8.8650 C   0  0  1  0  0  0  0  0  0  0  0  0
   -4.2960   20.9770   -8.3180 O   0  0  0  0  0  0  0  0  0  0  0  0
   -4.0280   23.3490   -8.5490 C   0  0  1  0  0  0  0  0  0  0  0  0
   -4.4180   24.0210   -9.7580 O   0  0  0  0  0  0  0  0  0  0  0  0
   -5.3360   21.5530   -7.5540 C   0  0  2  0  0  0  0  0  0  0  0  0
   -5.3060   23.0760   -7.7750 C   0  0  1  0  0  0  0  0  0  0  0  0
   -5.1610   21.2480   -6.1700 O   0  0  0  0  0  0  0  0  0  0  0  0
   -5.3970   23.8470   -6.5760 O   0  0  0  0  0  0  0  0  0  0  0  0
   -3.7740   21.1240   -5.7840 C   0  0  0  0  0  0  0  0  0  0  0  0
   -2.9660   20.0020   -6.4820 C   0  0  0  0  0  0  0  0  0  0  0  0
   -1.8750   19.4000   -5.5670 C   0  0  0  0  0  0  0  0  0  0  0  0
   -1.9050   17.8660   -5.4730 C   0  0  0  0  0  0  0  0  0  0  0  0
   -0.5620   17.1480   -5.7050 C   0  0  0  0  0  0  0  0  0  0  0  0
    0.5320   17.2630   -4.6460 C   0  0  0  0  0  0  0  0  0  0  0  0
    1.0330   15.8800   -4.1420 C   0  0  1  0  0  0  0  0  0  0  0  0
    0.4070   15.6330   -2.8550 O   0  0  0  0  0  0  0  0  0  0  0  0
    0.7170   14.6300   -4.9860 C   0  0  1  0  0  0  0  0  0  0  0  0
    1.6740   13.5820   -4.9430 O   0  0  0  0  0  0  0  0  0  0  0  0
   -0.4080   14.4550   -2.9420 C   0  0  0  0  0  0  0  0  0  0  0  0
   -0.6130   14.1640   -4.4140 C   0  0  2  0  0  0  0  0  0  0  0  0
   -0.8590   12.7940   -4.6940 O   0  0  0  0  0  0  0  0  0  0  0  0
  2  1  1  1
  2  3  1  0
  2  4  1  0
  4  5  1  6
  3  6  1  0
  4  7  1  0
  6  7  1  0
  6  8  1  1
  7  9  1  1
  8 10  1  0
 10 11  1  0
 11 12  1  0
 12 13  1  0
 13 14  1  0
 14 15  1  0
 16 15  1  6
 16 17  1  0
 16 18  1  0
 18 19  1  1
 17 20  1  0
 18 21  1  0
 20 21  1  0
 21 22  1  1
M  END
>  <%Rank>  (195) 
14.80916

>  <N_hits>  (195) 
2

>  <submitter_name>  (195) 
nan

>  <original SMILES>  (195) 
nan

>  <∆G_unbound>  (195) 
0.187336

>  <∆G_bound>  (195) 
-12.173953

>  <regarded>  (195) 
mArh-5cb5_B_0_B_α,mArh-6woj_C_0_C_γ

>  <ref_pdb>  (195) 
nan

>  <smiles>  (195) 
CC1OC(OCCCCCCC2OCC(O)C2O)C(O)C1O

>  <submitter_email>  (195) 
nan

>  <disregarded>  (195) 


>  <LE>  (195) 
-0.561877

>  <submitter_institution>  (195) 
nan

>  <ref_mols>  (195) 
mArh-5cb5_B_0_B,mArh-6woj_C_0_C

>  <N_constrained_atoms>  (195) 
17.0

>  <ref_url>  (195) 
nan

>  <method>  (195) 
nan

>  <comRMSD>  (195) 
0.459422

>  <N_unconstrained_atoms>  (195) 
5.0

>  <∆∆G>  (195) 
-12.361288

>  <runtime>  (195) 
36.168087

>  <generation_date>  (195) 
nan

$$$$
5CB3_0_A_δ-mArh-x0587_0_A_α
     RDKit          3D

 22 24  0  0  0  0  0  0  0  0999 V2000
   -3.7910   15.4010    1.8220 N   0  0  0  0  0  0  0  0  0  0  0  0
   -2.6080   15.4260    0.9980 C   0  0  2  0  0  0  0  0  0  0  0  0
   -2.7290   14.7600   -0.3600 C   0  0  2  0  0  0  0  0  0  0  0  0
   -1.5390   14.8320    1.7550 N   0  0  0  0  0  0  0  0  0  0  0  0
   -1.3670   15.1050   -0.9360 C   0  0  2  0  0  0  0  0  0  0  0  0
   -3.6020   15.2740   -1.4040 N   0  0  0  0  0  0  0  0  0  0  0  0
   -0.2520   14.5990    1.1190 C   0  0  0  0  0  0  0  0  0  0  0  0
   -1.5230   14.7250   -2.3100 N   0  0  0  0  0  0  0  0  0  0  0  0
   -2.8330   15.2820   -2.6340 C   0  0  0  0  0  0  0  0  0  0  0  0
   -0.2980   14.3890   -0.3110 N   0  0  0  0  0  0  0  0  0  0  0  0
   -4.8530   14.5650   -1.5690 C   0  0  0  0  0  0  0  0  0  0  0  0
   -4.5410   13.2790   -1.9320 F   0  0  0  0  0  0  0  0  0  0  0  0
   -5.4120   15.0980   -2.6910 F   0  0  0  0  0  0  0  0  0  0  0  0
   -5.8200   14.6190   -0.3640 C   0  0  0  0  0  0  0  0  0  0  0  0
   -7.1540   14.5660   -0.5980 N   0  0  0  0  0  0  0  0  0  0  0  0
   -5.2840   14.7270    0.8660 N   0  0  0  0  0  0  0  0  0  0  0  0
   -7.9640   14.6420    0.4860 C   0  0  0  0  0  0  0  0  0  0  0  0
   -6.1350   14.7990    1.9050 C   0  0  0  0  0  0  0  0  0  0  0  0
   -7.4960   14.7680    1.7760 C   0  0  0  0  0  0  0  0  0  0  0  0
   -8.4140   14.8710    2.9160 C   0  0  0  0  0  0  0  0  0  0  0  0
   -7.8650   14.8360    4.1650 N   0  0  0  0  0  0  0  0  0  0  0  0
   -9.6200   14.9980    2.7460 O   0  0  0  0  0  0  0  0  0  0  0  0
  2  1  1  1
  2  3  1  0
  2  4  1  0
  3  5  1  0
  3  6  1  6
  4  7  1  0
  5  8  1  6
  6  9  1  0
  8  9  1  0
  5 10  1  0
  7 10  1  0
  6 11  1  0
 11 12  1  0
 11 13  1  0
 11 14  1  0
 14 15  2  0
 14 16  1  0
 15 17  1  0
 16 18  2  0
 17 19  2  0
 18 19  1  0
 19 20  1  0
 20 21  1  0
 20 22  2  0
M  END
>  <%Rank>  (196) 
14.885496

>  <N_hits>  (196) 
2

>  <submitter_name>  (196) 
nan

>  <original SMILES>  (196) 
nan

>  <∆G_unbound>  (196) 
2.976553

>  <∆G_bound>  (196) 
1.115376

>  <regarded>  (196) 
5CB3_0_A_δ,mArh-x0587_0_A_α

>  <ref_pdb>  (196) 
nan

>  <smiles>  (196) 
NC(=O)c1cnc(C(F)(F)N2CNC3NCNC(N)C32)nc1

>  <submitter_email>  (196) 
nan

>  <disregarded>  (196) 


>  <LE>  (196) 
-0.084599

>  <submitter_institution>  (196) 
nan

>  <ref_mols>  (196) 
5CB3_0_A,mArh-x0587_0_A

>  <N_constrained_atoms>  (196) 
22.0

>  <ref_url>  (196) 
nan

>  <method>  (196) 
nan

>  <comRMSD>  (196) 
0.466179

>  <N_unconstrained_atoms>  (196) 
0.0

>  <∆∆G>  (196) 
-1.861177

>  <runtime>  (196) 
39.42268

>  <generation_date>  (196) 
nan

$$$$
mArh-5cb5_H_0_H_α-mArh-5cms_R_17_R_γ
     RDKit          3D

 22 23  0  0  0  0  0  0  0  0999 V2000
   -2.2280   21.7880   -8.3720 C   0  0  0  0  0  0  0  0  0  0  0  0
   -3.5680   22.1190   -9.0300 C   0  0  1  0  0  0  0  0  0  0  0  0
   -4.5620   21.1510   -8.6590 O   0  0  0  0  0  0  0  0  0  0  0  0
   -4.1030   23.4830   -8.6320 C   0  0  1  0  0  0  0  0  0  0  0  0
   -4.5320   24.1600   -9.8170 O   0  0  0  0  0  0  0  0  0  0  0  0
   -5.4430   21.6980   -7.6810 C   0  0  2  0  0  0  0  0  0  0  0  0
   -5.3640   23.2270   -7.8090 C   0  0  1  0  0  0  0  0  0  0  0  0
   -5.0350   21.2320   -6.4080 O   0  0  0  0  0  0  0  0  0  0  0  0
   -5.4130   23.9580   -6.5800 O   0  0  0  0  0  0  0  0  0  0  0  0
   -3.9530   20.3340   -6.6630 C   0  0  0  0  0  0  0  0  0  0  0  0
   -2.7590   20.3550   -5.7180 C   0  0  0  0  0  0  0  0  0  0  0  0
   -1.7070   19.3410   -6.1820 C   0  0  0  0  0  0  0  0  0  0  0  0
   -1.0330   18.6180   -5.0210 C   0  0  0  0  0  0  0  0  0  0  0  0
   -0.8460   17.1350   -5.2340 C   0  0  0  0  0  0  0  0  0  0  0  0
    0.6420   16.7880   -5.3240 C   0  0  0  0  0  0  0  0  0  0  0  0
    1.0850   15.7140   -4.3380 C   0  0  1  0  0  0  0  0  0  0  0  0
    0.1870   15.8130   -3.2190 O   0  0  0  0  0  0  0  0  0  0  0  0
    1.0720   14.2310   -4.7740 C   0  0  2  0  0  0  0  0  0  0  0  0
    1.0670   13.9360   -6.1440 O   0  0  0  0  0  0  0  0  0  0  0  0
   -0.2450   14.4970   -2.8670 C   0  0  0  0  0  0  0  0  0  0  0  0
   -0.1760   13.6740   -4.1280 C   0  0  2  0  0  0  0  0  0  0  0  0
   -0.0420   12.2800   -3.9070 O   0  0  0  0  0  0  0  0  0  0  0  0
  2  1  1  1
  2  3  1  0
  2  4  1  0
  4  5  1  6
  3  6  1  0
  4  7  1  0
  6  7  1  0
  6  8  1  1
  7  9  1  1
  8 10  1  0
 10 11  1  0
 11 12  1  0
 12 13  1  0
 13 14  1  0
 14 15  1  0
 16 15  1  6
 16 17  1  0
 16 18  1  0
 18 19  1  6
 17 20  1  0
 18 21  1  0
 20 21  1  0
 21 22  1  1
M  END
>  <%Rank>  (197) 
14.961832

>  <N_hits>  (197) 
2

>  <submitter_name>  (197) 
nan

>  <original SMILES>  (197) 
nan

>  <∆G_unbound>  (197) 
0.187336

>  <∆G_bound>  (197) 
-10.746118

>  <regarded>  (197) 
mArh-5cb5_H_0_H_α,mArh-5cms_R_17_R_γ

>  <ref_pdb>  (197) 
nan

>  <smiles>  (197) 
CC1OC(OCCCCCCC2OCC(O)C2O)C(O)C1O

>  <submitter_email>  (197) 
nan

>  <disregarded>  (197) 


>  <LE>  (197) 
-0.496975

>  <submitter_institution>  (197) 
nan

>  <ref_mols>  (197) 
mArh-5cb5_H_0_H,mArh-5cms_R_17_R

>  <N_constrained_atoms>  (197) 
17.0

>  <ref_url>  (197) 
nan

>  <method>  (197) 
nan

>  <comRMSD>  (197) 
0.431024

>  <N_unconstrained_atoms>  (197) 
5.0

>  <∆∆G>  (197) 
-10.933454

>  <runtime>  (197) 
35.077272

>  <generation_date>  (197) 
nan

$$$$
mArh-x0837_0_A_α-mArh-5cb5_C_0_C_γ
     RDKit          3D

 16 17  0  0  0  0  0  0  0  0999 V2000
   -7.3960   14.7670    0.3770 O   0  0  0  0  0  0  0  0  0  0  0  0
   -6.1420   14.7200    0.2870 C   0  0  0  0  0  0  0  0  0  0  0  0
   -5.3080   14.8950    1.4380 N   0  0  0  0  0  0  0  0  0  0  0  0
   -5.4600   14.4740   -1.0210 C   0  0  0  0  0  0  0  0  0  0  0  0
   -3.9140   14.9530    1.2380 C   0  0  0  0  0  0  0  0  0  0  0  0
   -4.1750   15.3010   -1.1020 C   0  0  2  0  0  0  0  0  0  0  0  0
   -3.2940   14.8990   -2.9690 I   0  0  0  0  0  0  0  0  0  0  0  0
   -3.3640   15.1360    0.0770 C   0  0  0  0  0  0  0  0  0  0  0  0
   -1.2110   14.6590   -3.1330 C   0  0  2  0  0  0  0  0  0  0  0  0
   -0.5370   15.8090   -3.4840 O   0  0  0  0  0  0  0  0  0  0  0  0
   -0.9210   13.6180   -4.1990 C   0  0  2  0  0  0  0  0  0  0  0  0
   -0.2670   12.5110   -3.6880 O   0  0  0  0  0  0  0  0  0  0  0  0
   -0.3470   15.7690   -4.8280 C   0  0  2  0  0  0  0  0  0  0  0  0
    0.0530   14.3480   -5.1320 C   0  0  1  0  0  0  0  0  0  0  0  0
    0.7360   16.7690   -5.2210 C   0  0  0  0  0  0  0  0  0  0  0  0
    1.3490   14.1080   -4.6760 O   0  0  0  0  0  0  0  0  0  0  0  0
  1  2  2  0
  2  3  1  0
  2  4  1  0
  3  5  1  0
  4  6  1  0
  6  7  1  6
  5  8  2  0
  6  8  1  0
  9  7  1  6
  9 10  1  0
  9 11  1  0
 11 12  1  1
 10 13  1  0
 11 14  1  0
 13 14  1  0
 13 15  1  1
 14 16  1  1
M  END
>  <%Rank>  (198) 
15.038168

>  <N_hits>  (198) 
2

>  <submitter_name>  (198) 
nan

>  <original SMILES>  (198) 
nan

>  <∆G_unbound>  (198) 
0.303433

>  <∆G_bound>  (198) 
-6.604982

>  <regarded>  (198) 
mArh-x0837_0_A_α,mArh-5cb5_C_0_C_γ

>  <ref_pdb>  (198) 
nan

>  <smiles>  (198) 
CC1OC(IC2C=CNC(=O)C2)C(O)C1O

>  <submitter_email>  (198) 
nan

>  <disregarded>  (198) 


>  <LE>  (198) 
-0.431776

>  <submitter_institution>  (198) 
nan

>  <ref_mols>  (198) 
mArh-x0837_0_A,mArh-5cb5_C_0_C

>  <N_constrained_atoms>  (198) 
16.0

>  <ref_url>  (198) 
nan

>  <method>  (198) 
nan

>  <comRMSD>  (198) 
0.523133

>  <N_unconstrained_atoms>  (198) 
0.0

>  <∆∆G>  (198) 
-6.908415

>  <runtime>  (198) 
29.410271

>  <generation_date>  (198) 
nan

$$$$
mArh-5cms_O_14_O_β-mArh-x0766_0_A_α
     RDKit          3D

 23 24  0  0  0  0  0  0  0  0999 V2000
   -1.4950   20.3230   -8.0710 O   0  0  0  0  0  0  0  0  0  0  0  0
   -0.1100   19.6440   -7.6710 P   0  0  0  0  0  0  0  0  0  0  0  0
   -0.3020   18.7860   -6.3510 O   0  0  0  0  0  0  0  0  0  0  0  0
    1.0140   20.6200   -7.5740 O   0  0  0  0  0  0  0  0  0  0  0  0
    0.0270   18.5260   -8.7940 O   0  0  0  0  0  0  0  0  0  0  0  0
   -1.6900   18.1240   -5.9470 P   0  0  2  0  0  0  0  0  0  0  0  0
   -1.3250   16.9460   -4.9160 O   0  0  0  0  0  0  0  0  0  0  0  0
   -2.5770   17.7180   -7.0620 O   0  0  0  0  0  0  0  0  0  0  0  0
   -2.3320   19.2360   -5.0170 O   0  0  0  0  0  0  0  0  0  0  0  0
    0.0070   16.7840   -4.4190 C   0  0  0  0  0  0  0  0  0  0  0  0
    0.4070   15.3050   -4.5670 C   0  0  1  0  0  0  0  0  0  0  0  0
    1.7420   14.9380   -3.9340 C   0  0  0  0  0  0  0  0  0  0  0  0
   -0.5210   14.1890   -3.9940 C   0  0  1  0  0  0  0  0  0  0  0  0
    0.4310   12.9490   -3.9550 C   0  0  1  0  0  0  0  0  0  0  0  0
    1.8330   13.4710   -4.2980 C   0  0  0  0  0  0  0  0  0  0  0  0
   -1.4360   14.4610   -2.7970 C   0  0  0  0  0  0  0  0  0  0  0  0
    0.4460   12.1930   -2.6520 C   0  0  0  0  0  0  0  0  0  0  0  0
   -2.8180   14.6360   -2.8510 C   0  0  0  0  0  0  0  0  0  0  0  0
   -1.0010   14.5700   -1.4230 C   0  0  0  0  0  0  0  0  0  0  0  0
    0.7170   12.6330   -1.5410 O   0  0  0  0  0  0  0  0  0  0  0  0
    0.1170   10.9050   -2.8000 O   0  0  0  0  0  0  0  0  0  0  0  0
   -2.0370   14.8080   -0.5390 C   0  0  0  0  0  0  0  0  0  0  0  0
   -3.5460   14.9150   -1.3280 S   0  0  0  0  0  0  0  0  0  0  0  0
  1  2  1  0
  2  3  1  0
  2  4  2  0
  2  5  1  0
  3  6  1  0
  6  7  1  0
  6  8  2  0
  6  9  1  1
  7 10  1  0
 11 10  1  1
 11 12  1  0
 11 13  1  0
 13 14  1  0
 12 15  1  0
 14 15  1  0
 13 16  1  1
 14 17  1  1
 16 18  2  0
 16 19  1  0
 17 20  2  0
 17 21  1  0
 19 22  2  0
 18 23  1  0
 22 23  1  0
M  END
>  <%Rank>  (199) 
15.114504

>  <N_hits>  (199) 
2

>  <submitter_name>  (199) 
nan

>  <original SMILES>  (199) 
nan

>  <∆G_unbound>  (199) 
0.799479

>  <∆G_bound>  (199) 
-13.211527

>  <regarded>  (199) 
mArh-5cms_O_14_O_β,mArh-x0766_0_A_α

>  <ref_pdb>  (199) 
nan

>  <smiles>  (199) 
O=C(O)C1CCC(COP(=O)(O)OP(=O)(O)O)C1c1ccsc1

>  <submitter_email>  (199) 
nan

>  <disregarded>  (199) 


>  <LE>  (199) 
-0.609174

>  <submitter_institution>  (199) 
nan

>  <ref_mols>  (199) 
mArh-5cms_O_14_O,mArh-x0766_0_A

>  <N_constrained_atoms>  (199) 
22.0

>  <ref_url>  (199) 
nan

>  <method>  (199) 
nan

>  <comRMSD>  (199) 
0.70903

>  <N_unconstrained_atoms>  (199) 
1.0

>  <∆∆G>  (199) 
-14.011006

>  <runtime>  (199) 
32.619849

>  <generation_date>  (199) 
nan

$$$$
5CMS_0_E_β-mArh-x0104_0_A_β
     RDKit          3D

 20 20  0  0  0  0  0  0  0  0999 V2000
   -1.7170   20.4030   -8.2990 O   0  0  0  0  0  0  0  0  0  0  0  0
   -0.4920   19.4730   -7.6560 P   0  0  0  0  0  0  0  0  0  0  0  0
   -0.7730   18.0160   -7.0730 O   0  0  0  0  0  0  0  0  0  0  0  0
    0.9600   20.2590   -7.4310 O   0  0  0  0  0  0  0  0  0  0  0  0
    0.0690   18.8510   -8.9050 O   0  0  0  0  0  0  0  0  0  0  0  0
   -2.0540   17.8670   -6.1290 P   0  0  0  0  0  0  0  0  0  0  0  0
   -1.3710   16.9690   -5.1000 O   0  0  0  0  0  0  0  0  0  0  0  0
   -3.2190   16.7600   -6.4200 O   0  0  0  0  0  0  0  0  0  0  0  0
   -2.2430   19.0520   -4.9820 O   0  0  0  0  0  0  0  0  0  0  0  0
   -2.0650   15.7970   -4.7500 C   0  0  0  0  0  0  0  0  0  0  0  0
   -2.2530   15.7060   -3.2390 C   0  0  0  0  0  0  0  0  0  0  0  0
   -3.2200   14.6310   -2.8340 C   0  0  0  0  0  0  0  0  0  0  0  0
   -4.4850   15.1420   -2.4990 O   0  0  0  0  0  0  0  0  0  0  0  0
   -5.0790   15.0210   -1.2560 C   0  0  0  0  0  0  0  0  0  0  0  0
   -4.3430   15.1230   -0.1170 N   0  0  0  0  0  0  0  0  0  0  0  0
   -6.4320   14.7920   -1.0950 C   0  0  0  0  0  0  0  0  0  0  0  0
   -4.9080   15.0100    1.0930 C   0  0  0  0  0  0  0  0  0  0  0  0
   -7.0340   14.6690    0.1390 C   0  0  0  0  0  0  0  0  0  0  0  0
   -6.2560   14.7820    1.2890 C   0  0  0  0  0  0  0  0  0  0  0  0
   -6.8260   14.6740    2.5750 N   0  0  0  0  0  0  0  0  0  0  0  0
  1  2  1  0
  2  3  1  0
  2  4  1  0
  2  5  1  0
  3  6  1  0
  6  7  1  0
  6  8  1  0
  6  9  1  0
  7 10  1  0
 10 11  1  0
 11 12  1  0
 12 13  1  0
 13 14  1  0
 14 15  2  0
 14 16  1  0
 15 17  1  0
 16 18  2  0
 17 19  2  0
 18 19  1  0
 19 20  1  0
M  CHG  2   4  -1   8  -1
M  END
>  <%Rank>  (200) 
15.19084

>  <N_hits>  (200) 
2

>  <submitter_name>  (200) 
nan

>  <original SMILES>  (200) 
nan

>  <∆G_unbound>  (200) 
0.398919

>  <∆G_bound>  (200) 
-6.875969

>  <regarded>  (200) 
5CMS_0_E_β,mArh-x0104_0_A_β

>  <ref_pdb>  (200) 
nan

>  <smiles>  (200) 
Nc1ccc(OCCCO[PH]([O-])(O)O[PH]([O-])(O)O)nc1

>  <submitter_email>  (200) 
nan

>  <disregarded>  (200) 


>  <LE>  (200) 
-0.363744

>  <submitter_institution>  (200) 
nan

>  <ref_mols>  (200) 
5CMS_0_E,mArh-x0104_0_A

>  <N_constrained_atoms>  (200) 
18.0

>  <ref_url>  (200) 
nan

>  <method>  (200) 
nan

>  <comRMSD>  (200) 
0.478366

>  <N_unconstrained_atoms>  (200) 
2.0

>  <∆∆G>  (200) 
-7.274888

>  <runtime>  (200) 
38.972016

>  <generation_date>  (200) 
nan

$$$$
5CMS_0_F_δ-mArh-x0587_0_A_α
     RDKit          3D

 22 24  0  0  0  0  0  0  0  0999 V2000
   -3.5560   15.2670    1.8210 N   0  0  0  0  0  0  0  0  0  0  0  0
   -2.3610   15.3230    1.0190 C   0  0  2  0  0  0  0  0  0  0  0  0
   -2.4780   14.6800   -0.3440 C   0  0  2  0  0  0  0  0  0  0  0  0
   -1.3110   14.7100    1.7670 N   0  0  0  0  0  0  0  0  0  0  0  0
   -1.1310   15.0730   -0.9250 C   0  0  2  0  0  0  0  0  0  0  0  0
   -3.3730   15.2070   -1.3670 N   0  0  0  0  0  0  0  0  0  0  0  0
   -0.0390   14.4810    1.1340 C   0  0  0  0  0  0  0  0  0  0  0  0
   -1.2880   14.6820   -2.2940 N   0  0  0  0  0  0  0  0  0  0  0  0
   -2.6210   15.2000   -2.6060 C   0  0  0  0  0  0  0  0  0  0  0  0
   -0.0290   14.4010   -0.3120 N   0  0  0  0  0  0  0  0  0  0  0  0
   -4.6690   14.5530   -1.5240 C   0  0  0  0  0  0  0  0  0  0  0  0
   -4.4210   13.2620   -1.9120 F   0  0  0  0  0  0  0  0  0  0  0  0
   -5.2090   15.1240   -2.6420 F   0  0  0  0  0  0  0  0  0  0  0  0
   -5.6630   14.6180   -0.3370 C   0  0  0  0  0  0  0  0  0  0  0  0
   -6.9930   14.5330   -0.6020 N   0  0  0  0  0  0  0  0  0  0  0  0
   -5.1650   14.7620    0.9070 N   0  0  0  0  0  0  0  0  0  0  0  0
   -7.8380   14.6120    0.4550 C   0  0  0  0  0  0  0  0  0  0  0  0
   -6.0500   14.8350    1.9190 C   0  0  0  0  0  0  0  0  0  0  0  0
   -7.4100   14.7710    1.7570 C   0  0  0  0  0  0  0  0  0  0  0  0
   -8.3660   14.8740    2.8650 C   0  0  0  0  0  0  0  0  0  0  0  0
   -7.8610   14.8250    4.1340 N   0  0  0  0  0  0  0  0  0  0  0  0
   -9.5640   15.0130    2.6610 O   0  0  0  0  0  0  0  0  0  0  0  0
  2  1  1  1
  2  3  1  0
  2  4  1  0
  3  5  1  0
  3  6  1  6
  4  7  1  0
  5  8  1  6
  6  9  1  0
  8  9  1  0
  5 10  1  0
  7 10  1  0
  6 11  1  0
 11 12  1  0
 11 13  1  0
 11 14  1  0
 14 15  2  0
 14 16  1  0
 15 17  1  0
 16 18  2  0
 17 19  2  0
 18 19  1  0
 19 20  1  0
 20 21  1  0
 20 22  2  0
M  END
>  <%Rank>  (201) 
15.267176

>  <N_hits>  (201) 
2

>  <submitter_name>  (201) 
nan

>  <original SMILES>  (201) 
nan

>  <∆G_unbound>  (201) 
2.976553

>  <∆G_bound>  (201) 
1.12526

>  <regarded>  (201) 
5CMS_0_F_δ,mArh-x0587_0_A_α

>  <ref_pdb>  (201) 
nan

>  <smiles>  (201) 
NC(=O)c1cnc(C(F)(F)N2CNC3NCNC(N)C32)nc1

>  <submitter_email>  (201) 
nan

>  <disregarded>  (201) 


>  <LE>  (201) 
-0.08415

>  <submitter_institution>  (201) 
nan

>  <ref_mols>  (201) 
5CMS_0_F,mArh-x0587_0_A

>  <N_constrained_atoms>  (201) 
22.0

>  <ref_url>  (201) 
nan

>  <method>  (201) 
nan

>  <comRMSD>  (201) 
0.470775

>  <N_unconstrained_atoms>  (201) 
0.0

>  <∆∆G>  (201) 
-1.851293

>  <runtime>  (201) 
32.819863

>  <generation_date>  (201) 
nan

$$$$
mArh-6woj_A_0_A_γ-5CMS_0_H_β
     RDKit          3D

 18 18  0  0  0  0  0  0  0  0999 V2000
   -0.6520   12.5160   -4.6010 O   0  0  0  0  0  0  0  0  0  0  0  0
   -0.4420   13.8950   -4.4860 C   0  0  1  0  0  0  0  0  0  0  0  0
   -0.1050   14.1340   -3.0110 C   0  0  0  0  0  0  0  0  0  0  0  0
    0.8910   14.3070   -5.0940 C   0  0  2  0  0  0  0  0  0  0  0  0
    1.7890   13.2870   -4.9210 O   0  0  0  0  0  0  0  0  0  0  0  0
    0.4840   15.4090   -3.0460 O   0  0  0  0  0  0  0  0  0  0  0  0
    1.2640   15.4570   -4.2430 C   0  0  2  0  0  0  0  0  0  0  0  0
    0.9800   16.7870   -4.8070 C   0  0  0  0  0  0  0  0  0  0  0  0
   -0.4860   17.2180   -4.7040 C   0  0  0  0  0  0  0  0  0  0  0  0
   -0.9750   17.2230   -5.9970 O   0  0  0  0  0  0  0  0  0  0  0  0
   -2.2170   18.0300   -6.2410 P   0  0  0  0  0  0  0  0  0  0  0  0
   -1.6930   18.6610   -7.6480 O   0  0  0  0  0  0  0  0  0  0  0  0
   -3.1650   16.7140   -6.2570 O   0  0  0  0  0  0  0  0  0  0  0  0
   -2.0160   18.9220   -4.8680 O   0  0  0  0  0  0  0  0  0  0  0  0
   -0.4110   19.4550   -7.7620 P   0  0  0  0  0  0  0  0  0  0  0  0
   -1.3400   20.8350   -8.0680 O   0  0  0  0  0  0  0  0  0  0  0  0
    0.0530   19.1040   -6.2450 O   0  0  0  0  0  0  0  0  0  0  0  0
    0.2140   18.6680   -8.9860 O   0  0  0  0  0  0  0  0  0  0  0  0
  2  1  1  1
  2  3  1  0
  2  4  1  0
  4  5  1  1
  3  6  1  0
  4  7  1  0
  6  7  1  0
  7  8  1  6
  8  9  1  0
  9 10  1  0
 10 11  1  0
 11 12  1  0
 11 13  1  0
 11 14  1  0
 12 15  1  0
 15 16  1  0
 15 17  1  0
 15 18  1  0
M  CHG  2  13  -1  17  -1
M  END
>  <%Rank>  (202) 
15.343511

>  <N_hits>  (202) 
2

>  <submitter_name>  (202) 
nan

>  <original SMILES>  (202) 
nan

>  <∆G_unbound>  (202) 
0.874658

>  <∆G_bound>  (202) 
-7.684363

>  <regarded>  (202) 
mArh-6woj_A_0_A_γ,5CMS_0_H_β

>  <ref_pdb>  (202) 
nan

>  <smiles>  (202) 
[O-][PH](O)(O)O[PH]([O-])(O)OCCC1OCC(O)C1O

>  <submitter_email>  (202) 
nan

>  <disregarded>  (202) 


>  <LE>  (202) 
-0.475501

>  <submitter_institution>  (202) 
nan

>  <ref_mols>  (202) 
mArh-6woj_A_0_A,5CMS_0_H

>  <N_constrained_atoms>  (202) 
17.0

>  <ref_url>  (202) 
nan

>  <method>  (202) 
nan

>  <comRMSD>  (202) 
0.542657

>  <N_unconstrained_atoms>  (202) 
1.0

>  <∆∆G>  (202) 
-8.559022

>  <runtime>  (202) 
27.300966

>  <generation_date>  (202) 
nan

$$$$
mArh-5cms_H_7_H_β-mArh-5dus_0_A_α
     RDKit          3D

 17 17  0  0  0  0  0  0  0  0999 V2000
   -1.6120   21.3220   -7.9780 O   0  0  0  0  0  0  0  0  0  0  0  0
   -0.9780   19.8230   -7.6860 P   0  0  2  0  0  0  0  0  0  0  0  0
   -2.1360   18.7840   -7.3960 O   0  0  0  0  0  0  0  0  0  0  0  0
   -3.0280   21.6820   -8.0920 C   0  0  1  0  0  0  0  0  0  0  0  0
    0.0780   19.6990   -6.6620 O   0  0  0  0  0  0  0  0  0  0  0  0
   -0.3250   19.2370   -9.0170 O   0  0  0  0  0  0  0  0  0  0  0  0
   -3.8450   20.9860   -7.1320 O   0  0  0  0  0  0  0  0  0  0  0  0
   -3.4060   23.2000   -7.8690 C   0  0  1  0  0  0  0  0  0  0  0  0
   -2.0480   17.8090   -6.1550 P   0  0  0  0  0  0  0  0  0  0  0  0
   -4.1590   23.7880   -8.9530 O   0  0  0  0  0  0  0  0  0  0  0  0
   -4.9450   21.8380   -6.8360 C   0  0  2  0  0  0  0  0  0  0  0  0
   -4.2710   23.1660   -6.6030 C   0  0  2  0  0  0  0  0  0  0  0  0
   -0.5460   17.2960   -6.1170 O   0  0  0  0  0  0  0  0  0  0  0  0
   -3.0890   16.7440   -6.1550 O   0  0  0  0  0  0  0  0  0  0  0  0
   -2.0630   18.7940   -4.9010 O   0  0  0  0  0  0  0  0  0  0  0  0
   -5.6030   21.4450   -5.6420 O   0  0  0  0  0  0  0  0  0  0  0  0
   -5.2730   24.1960   -6.5310 O   0  0  0  0  0  0  0  0  0  0  0  0
  1  2  1  0
  2  3  1  0
  4  1  1  1
  2  5  2  0
  2  6  1  6
  4  7  1  0
  4  8  1  0
  3  9  1  0
  8 10  1  6
  7 11  1  0
  8 12  1  0
 11 12  1  0
  9 13  1  0
  9 14  2  0
  9 15  1  0
 11 16  1  1
 12 17  1  6
M  END
>  <%Rank>  (203) 
15.419847

>  <N_hits>  (203) 
2

>  <submitter_name>  (203) 
nan

>  <original SMILES>  (203) 
nan

>  <∆G_unbound>  (203) 
1.974322

>  <∆G_bound>  (203) 
-9.992631

>  <regarded>  (203) 
mArh-5cms_H_7_H_β,mArh-5dus_0_A_α

>  <ref_pdb>  (203) 
nan

>  <smiles>  (203) 
O=P(O)(O)OP(=O)(O)OC1OC(O)C(O)C1O

>  <submitter_email>  (203) 
nan

>  <disregarded>  (203) 


>  <LE>  (203) 
-0.703938

>  <submitter_institution>  (203) 
nan

>  <ref_mols>  (203) 
mArh-5cms_H_7_H,mArh-5dus_0_A

>  <N_constrained_atoms>  (203) 
17.0

>  <ref_url>  (203) 
nan

>  <method>  (203) 
nan

>  <comRMSD>  (203) 
0.686885

>  <N_unconstrained_atoms>  (203) 
0.0

>  <∆∆G>  (203) 
-11.966953

>  <runtime>  (203) 
36.412585

>  <generation_date>  (203) 
nan

$$$$
mArh-5cb5_P_0_P_β-6MEA_0_B_β
     RDKit          3D

  9  8  0  0  0  0  0  0  0  0999 V2000
   -1.7120   20.4180   -8.0610 O   0  0  0  0  0  0  0  0  0  0  0  0
   -0.2520   19.8360   -7.7870 P   0  0  0  0  0  0  0  0  0  0  0  0
   -0.3400   18.8810   -6.5590 O   0  0  0  0  0  0  0  0  0  0  0  0
    0.7890   20.8840   -7.7600 O   0  0  0  0  0  0  0  0  0  0  0  0
   -0.0360   18.7740   -8.9550 O   0  0  0  0  0  0  0  0  0  0  0  0
   -1.6530   18.2380   -5.9750 P   0  0  0  0  0  0  0  0  0  0  0  0
   -1.1460   17.0630   -5.0240 O   0  0  0  0  0  0  0  0  0  0  0  0
   -2.6310   17.7770   -6.9830 O   0  0  0  0  0  0  0  0  0  0  0  0
   -2.2130   19.3420   -4.9830 O   0  0  0  0  0  0  0  0  0  0  0  0
  1  2  1  0
  2  3  1  0
  2  4  2  0
  2  5  1  0
  3  6  1  0
  6  7  1  0
  6  8  2  0
  6  9  1  0
M  END
>  <%Rank>  (204) 
15.496183

>  <N_hits>  (204) 
2

>  <submitter_name>  (204) 
nan

>  <original SMILES>  (204) 
nan

>  <∆G_unbound>  (204) 
0.687887

>  <∆G_bound>  (204) 
-8.263471

>  <regarded>  (204) 
mArh-5cb5_P_0_P_β,6MEA_0_B_β

>  <ref_pdb>  (204) 
nan

>  <smiles>  (204) 
O=P(O)(O)OP(=O)(O)O

>  <submitter_email>  (204) 
nan

>  <disregarded>  (204) 


>  <LE>  (204) 
-0.994595

>  <submitter_institution>  (204) 
nan

>  <ref_mols>  (204) 
mArh-5cb5_P_0_P,6MEA_0_B

>  <N_constrained_atoms>  (204) 
9.0

>  <ref_url>  (204) 
nan

>  <method>  (204) 
nan

>  <comRMSD>  (204) 
0.611283

>  <N_unconstrained_atoms>  (204) 
0.0

>  <∆∆G>  (204) 
-8.951358

>  <runtime>  (204) 
27.953388

>  <generation_date>  (204) 
nan

$$$$
mArh-x0855_0_A_α-mArh-5cms_R_17_R_γ
     RDKit          3D

 17 18  0  0  0  0  0  0  0  0999 V2000
    1.3970   12.5440   -2.0660 O   0  0  0  0  0  0  0  0  0  0  0  0
    0.7180   11.7170   -2.8820 C   0  0  0  0  0  0  0  0  0  0  0  0
    0.4040   12.2990   -4.2400 C   0  0  1  0  0  0  0  0  0  0  0  0
    0.4070   10.5870   -2.4930 O   0  0  0  0  0  0  0  0  0  0  0  0
   -0.5900   11.4740   -4.8940 N   0  0  0  0  0  0  0  0  0  0  0  0
   -0.0700   13.7470   -4.2360 C   0  0  1  0  0  0  0  0  0  0  0  0
   -0.4080   10.6430   -5.9630 C   0  0  0  0  0  0  0  0  0  0  0  0
   -1.8620   11.4910   -4.4360 N   0  0  0  0  0  0  0  0  0  0  0  0
    0.2740   14.5680   -2.9990 C   0  0  0  0  0  0  0  0  0  0  0  0
    0.6050   14.5000   -5.3470 C   0  0  2  0  0  0  0  0  0  0  0  0
    1.6970   13.6800   -5.7860 O   0  0  0  0  0  0  0  0  0  0  0  0
   -1.6320   10.0850   -6.1930 C   0  0  0  0  0  0  0  0  0  0  0  0
   -2.4930   10.6340   -5.2390 C   0  0  0  0  0  0  0  0  0  0  0  0
    0.3870   15.9130   -3.4560 O   0  0  0  0  0  0  0  0  0  0  0  0
    1.0630   15.8190   -4.7150 C   0  0  2  0  0  0  0  0  0  0  0  0
   -2.1020    8.8420   -7.4970 Br  0  0  0  0  0  0  0  0  0  0  0  0
    0.6930   17.0650   -5.5170 C   0  0  0  0  0  0  0  0  0  0  0  0
  1  2  1  0
  3  2  1  1
  2  4  2  0
  3  5  1  0
  3  6  1  0
  5  7  1  0
  5  8  1  0
  6  9  1  1
  6 10  1  0
 10 11  1  1
  7 12  2  0
  8 13  2  0
 12 13  1  0
  9 14  1  0
 10 15  1  0
 14 15  1  0
 12 16  1  0
 15 17  1  6
M  END
>  <%Rank>  (205) 
15.572519

>  <N_hits>  (205) 
2

>  <submitter_name>  (205) 
nan

>  <original SMILES>  (205) 
nan

>  <∆G_unbound>  (205) 
1.144219

>  <∆G_bound>  (205) 
-1.886589

>  <regarded>  (205) 
mArh-x0855_0_A_α,mArh-5cms_R_17_R_γ

>  <ref_pdb>  (205) 
nan

>  <smiles>  (205) 
CC1OCC(C(C(=O)O)n2cc(Br)cn2)C1O

>  <submitter_email>  (205) 
nan

>  <disregarded>  (205) 


>  <LE>  (205) 
-0.178283

>  <submitter_institution>  (205) 
nan

>  <ref_mols>  (205) 
mArh-x0855_0_A,mArh-5cms_R_17_R

>  <N_constrained_atoms>  (205) 
17.0

>  <ref_url>  (205) 
nan

>  <method>  (205) 
nan

>  <comRMSD>  (205) 
0.426835

>  <N_unconstrained_atoms>  (205) 
0.0

>  <∆∆G>  (205) 
-3.030808

>  <runtime>  (205) 
37.396135

>  <generation_date>  (205) 
nan

$$$$
mArh-EU0056_0_A_α-5L9K_0_B_γ
     RDKit          3D

 20 21  0  0  0  0  0  0  0  0999 V2000
   -8.1990   13.7520    4.2470 N   0  0  0  0  0  0  0  0  0  0  0  0
   -8.3120   14.9290    3.4010 C   0  0  0  0  0  0  0  0  0  0  0  0
   -7.5380   14.7710    2.1250 C   0  0  0  0  0  0  0  0  0  0  0  0
   -8.1880   14.6800    0.8980 C   0  0  0  0  0  0  0  0  0  0  0  0
   -6.1350   14.7130    2.1160 C   0  0  0  0  0  0  0  0  0  0  0  0
   -7.5490   14.5430   -0.2820 N   0  0  0  0  0  0  0  0  0  0  0  0
   -5.4340   14.5670    0.9240 C   0  0  0  0  0  0  0  0  0  0  0  0
   -4.0770   14.4830    0.7500 O   0  0  0  0  0  0  0  0  0  0  0  0
   -6.1950   14.4900   -0.2390 C   0  0  0  0  0  0  0  0  0  0  0  0
   -3.2510   15.6360    0.7850 C   0  0  0  0  0  0  0  0  0  0  0  0
   -2.6200   15.8750   -0.5890 C   0  0  0  0  0  0  0  0  0  0  0  0
   -2.1690   14.6430   -1.3690 C   0  0  0  0  0  0  0  0  0  0  0  0
   -1.9660   14.9400   -2.8610 C   0  0  1  0  0  0  0  0  0  0  0  0
   -0.9710   15.9590   -3.0550 O   0  0  0  0  0  0  0  0  0  0  0  0
   -1.5040   13.7140   -3.6450 C   0  0  1  0  0  0  0  0  0  0  0  0
   -2.5870   12.9200   -4.1050 O   0  0  0  0  0  0  0  0  0  0  0  0
   -0.2320   15.6680   -4.2620 C   0  0  1  0  0  0  0  0  0  0  0  0
   -0.7000   14.3030   -4.7980 C   0  0  1  0  0  0  0  0  0  0  0  0
   -0.3730   16.8440   -5.2170 C   0  0  0  0  0  0  0  0  0  0  0  0
    0.3790   13.3860   -5.0240 O   0  0  0  0  0  0  0  0  0  0  0  0
  1  2  1  0
  2  3  1  0
  3  4  2  0
  3  5  1  0
  4  6  1  0
  5  7  2  0
  7  8  1  0
  6  9  2  0
  7  9  1  0
  8 10  1  0
 10 11  1  0
 11 12  1  0
 13 12  1  1
 13 14  1  0
 13 15  1  0
 15 16  1  6
 14 17  1  0
 15 18  1  0
 17 18  1  0
 17 19  1  6
 18 20  1  1
M  END
>  <%Rank>  (206) 
15.648855

>  <N_hits>  (206) 
2

>  <submitter_name>  (206) 
nan

>  <original SMILES>  (206) 
nan

>  <∆G_unbound>  (206) 
0.154848

>  <∆G_bound>  (206) 
-4.838435

>  <regarded>  (206) 
mArh-EU0056_0_A_α,5L9K_0_B_γ

>  <ref_pdb>  (206) 
nan

>  <smiles>  (206) 
CC1OC(CCCOc2cncc(CN)c2)C(O)C1O

>  <submitter_email>  (206) 
nan

>  <disregarded>  (206) 


>  <LE>  (206) 
-0.249664

>  <submitter_institution>  (206) 
nan

>  <ref_mols>  (206) 
mArh-EU0056_0_A,5L9K_0_B

>  <N_constrained_atoms>  (206) 
17.0

>  <ref_url>  (206) 
nan

>  <method>  (206) 
nan

>  <comRMSD>  (206) 
0.374636

>  <N_unconstrained_atoms>  (206) 
3.0

>  <∆∆G>  (206) 
-4.993284

>  <runtime>  (206) 
34.945228

>  <generation_date>  (206) 
nan

$$$$
mArh-5cb5_B_0_B_β-5DUS_0_A_δ
     RDKit          3D

 21 22  0  0  0  0  0  0  0  0999 V2000
   -1.5100   20.6980   -8.7190 O   0  0  0  0  0  0  0  0  0  0  0  0
   -0.4130   19.9810   -7.8240 P   0  0  0  0  0  0  0  0  0  0  0  0
   -1.1390   19.6560   -6.4490 O   0  0  0  0  0  0  0  0  0  0  0  0
    0.8130   20.8150   -7.7110 O   0  0  0  0  0  0  0  0  0  0  0  0
   -0.2010   18.6300   -8.6540 O   0  0  0  0  0  0  0  0  0  0  0  0
   -1.6800   18.2200   -6.1010 P   0  0  2  0  0  0  0  0  0  0  0  0
   -0.3740   17.3430   -6.3040 O   0  0  0  0  0  0  0  0  0  0  0  0
   -2.8060   17.7660   -6.9420 O   0  0  0  0  0  0  0  0  0  0  0  0
   -1.8600   18.0790   -4.5240 O   0  0  0  0  0  0  0  0  0  0  0  0
   -1.4430   16.8310   -3.9770 C   0  0  0  0  0  0  0  0  0  0  0  0
   -2.6180   15.8660   -3.7910 C   0  0  0  0  0  0  0  0  0  0  0  0
   -2.6680   15.0020   -2.5210 C   0  0  1  0  0  0  0  0  0  0  0  0
   -1.3570   14.4150   -2.1870 N   0  0  0  0  0  0  0  0  0  0  0  0
   -3.1920   15.6440   -1.3080 N   0  0  0  0  0  0  0  0  0  0  0  0
   -1.1360   14.8230   -0.8220 C   0  0  1  0  0  0  0  0  0  0  0  0
   -2.5390   14.8320   -0.2900 C   0  0  1  0  0  0  0  0  0  0  0  0
   -0.2900   13.8850   -0.1430 N   0  0  0  0  0  0  0  0  0  0  0  0
   -2.3830   15.3780    1.0950 C   0  0  1  0  0  0  0  0  0  0  0  0
   -3.6440   15.5320    1.8110 N   0  0  0  0  0  0  0  0  0  0  0  0
   -0.2360   14.2410    1.2670 C   0  0  0  0  0  0  0  0  0  0  0  0
   -1.5580   14.4810    1.8310 N   0  0  0  0  0  0  0  0  0  0  0  0
  1  2  1  0
  2  3  1  0
  2  4  2  0
  2  5  1  0
  3  6  1  0
  6  7  1  6
  6  8  2  0
  6  9  1  0
  9 10  1  0
 10 11  1  0
 12 11  1  6
 12 13  1  0
 12 14  1  0
 15 13  1  6
 16 14  1  6
 15 16  1  0
 15 17  1  0
 16 18  1  0
 18 19  1  1
 17 20  1  0
 18 21  1  0
 20 21  1  0
M  END
>  <%Rank>  (207) 
15.725191

>  <N_hits>  (207) 
2

>  <submitter_name>  (207) 
nan

>  <original SMILES>  (207) 
nan

>  <∆G_unbound>  (207) 
4.831508

>  <∆G_bound>  (207) 
-9.768603

>  <regarded>  (207) 
mArh-5cb5_B_0_B_β,5DUS_0_A_δ

>  <ref_pdb>  (207) 
nan

>  <smiles>  (207) 
NC1NCNC2NC(CCOP(=O)(O)OP(=O)(O)O)NC12

>  <submitter_email>  (207) 
nan

>  <disregarded>  (207) 


>  <LE>  (207) 
-0.695243

>  <submitter_institution>  (207) 
nan

>  <ref_mols>  (207) 
mArh-5cb5_B_0_B,5DUS_0_A

>  <N_constrained_atoms>  (207) 
19.0

>  <ref_url>  (207) 
nan

>  <method>  (207) 
nan

>  <comRMSD>  (207) 
0.675922

>  <N_unconstrained_atoms>  (207) 
2.0

>  <∆∆G>  (207) 
-14.600111

>  <runtime>  (207) 
35.185119

>  <generation_date>  (207) 
nan

$$$$
mArh-6woj_C_0_C_β-mArh-EU0172_0_A_α
     RDKit          3D

 22 22  0  0  0  0  0  0  0  0999 V2000
   -1.3900   20.6500   -8.2830 O   0  0  0  0  0  0  0  0  0  0  0  0
   -0.0870   19.9670   -7.6670 P   0  0  0  0  0  0  0  0  0  0  0  0
   -0.6530   19.4940   -6.2470 O   0  0  0  0  0  0  0  0  0  0  0  0
    1.1290   20.8450   -7.5670 O   0  0  0  0  0  0  0  0  0  0  0  0
    0.0490   18.6240   -8.5500 O   0  0  0  0  0  0  0  0  0  0  0  0
   -1.1560   18.0520   -5.9040 P   0  0  0  0  0  0  0  0  0  0  0  0
    0.0290   17.0620   -6.1790 O   0  0  0  0  0  0  0  0  0  0  0  0
   -1.5770   17.9030   -4.3200 N   0  0  0  0  0  0  0  0  0  0  0  0
   -2.4090   17.7090   -6.8030 O   0  0  0  0  0  0  0  0  0  0  0  0
   -1.2220   16.6300   -3.7120 C   0  0  0  0  0  0  0  0  0  0  0  0
   -2.4510   15.8480   -3.2000 C   0  0  0  0  0  0  0  0  0  0  0  0
   -2.4240   15.6300   -1.6830 C   0  0  0  0  0  0  0  0  0  0  0  0
   -3.6770   15.1090   -1.0190 C   0  0  0  0  0  0  0  0  0  0  0  0
   -3.4570   14.2080    0.0800 C   0  0  0  0  0  0  0  0  0  0  0  0
   -4.9470   15.4070   -1.3640 C   0  0  0  0  0  0  0  0  0  0  0  0
   -4.4730   13.7700    0.8160 C   0  0  0  0  0  0  0  0  0  0  0  0
   -6.0930   14.8190   -0.6090 C   0  0  0  0  0  0  0  0  0  0  0  0
   -7.2390   14.9330   -1.0310 O   0  0  0  0  0  0  0  0  0  0  0  0
   -5.7750   14.1640    0.5750 N   0  0  0  0  0  0  0  0  0  0  0  0
   -6.6050   14.5510    1.7140 C   0  0  0  0  0  0  0  0  0  0  0  0
   -7.2880   13.4270    2.4900 C   0  0  0  0  0  0  0  0  0  0  0  0
   -7.9370   13.9120    3.7110 N   0  0  0  0  0  0  0  0  0  0  0  0
  1  2  1  0
  2  3  1  0
  2  4  2  0
  2  5  1  0
  3  6  1  0
  6  7  1  0
  6  8  2  3
  6  9  1  0
  8 10  1  0
 10 11  1  0
 11 12  1  0
 12 13  1  0
 13 14  1  0
 13 15  2  0
 14 16  2  0
 15 17  1  0
 17 18  2  0
 16 19  1  0
 17 19  1  0
 19 20  1  0
 20 21  1  0
 21 22  1  0
M  END
>  <%Rank>  (208) 
15.801527

>  <N_hits>  (208) 
2

>  <submitter_name>  (208) 
nan

>  <original SMILES>  (208) 
nan

>  <∆G_unbound>  (208) 
0.836397

>  <∆G_bound>  (208) 
-10.168115

>  <regarded>  (208) 
mArh-6woj_C_0_C_β,mArh-EU0172_0_A_α

>  <ref_pdb>  (208) 
nan

>  <smiles>  (208) 
NCCn1ccc(CCCN=P(O)(O)OP(=O)(O)O)cc1=O

>  <submitter_email>  (208) 
nan

>  <disregarded>  (208) 


>  <LE>  (208) 
-0.500205

>  <submitter_institution>  (208) 
nan

>  <ref_mols>  (208) 
mArh-6woj_C_0_C,mArh-EU0172_0_A

>  <N_constrained_atoms>  (208) 
19.0

>  <ref_url>  (208) 
nan

>  <method>  (208) 
nan

>  <comRMSD>  (208) 
0.552254

>  <N_unconstrained_atoms>  (208) 
3.0

>  <∆∆G>  (208) 
-11.004512

>  <runtime>  (208) 
35.22982

>  <generation_date>  (208) 
nan

$$$$
mArh-mac-327_0_A_α-MAC-257_0_A_α
     RDKit          3D

 15 16  0  0  0  0  0  0  0  0999 V2000
    7.1680   27.9880   15.5580 O   0  0  0  0  0  0  0  0  0  0  0  0
    6.2210   28.4430   16.4020 C   0  0  0  0  0  0  0  0  0  0  0  0
    6.4780   29.1790   17.3330 O   0  0  0  0  0  0  0  0  0  0  0  0
    4.8440   28.0030   16.1050 C   0  0  0  0  0  0  0  0  0  0  0  0
    4.5400   26.9440   15.2720 C   0  0  0  0  0  0  0  0  0  0  0  0
    3.7840   28.6840   16.6910 C   0  0  0  0  0  0  0  0  0  0  0  0
    3.2770   26.5430   14.9950 N   0  0  0  0  0  0  0  0  0  0  0  0
    2.4750   28.2900   16.4160 C   0  0  0  0  0  0  0  0  0  0  0  0
    2.2450   27.2150   15.5560 C   0  0  0  0  0  0  0  0  0  0  0  0
    0.8980   26.7550   15.1830 C   0  0  0  0  0  0  0  0  0  0  0  0
    0.6010   25.4320   14.8370 C   0  0  0  0  0  0  0  0  0  0  0  0
   -0.1640   27.6840   15.1530 C   0  0  0  0  0  0  0  0  0  0  0  0
   -0.6980   25.0500   14.4790 C   0  0  0  0  0  0  0  0  0  0  0  0
   -1.4590   27.3050   14.7940 C   0  0  0  0  0  0  0  0  0  0  0  0
   -1.7260   25.9870   14.4570 C   0  0  0  0  0  0  0  0  0  0  0  0
  1  2  1  0
  2  3  2  0
  2  4  1  0
  4  5  2  0
  4  6  1  0
  5  7  1  0
  6  8  2  0
  7  9  2  0
  8  9  1  0
  9 10  1  0
 10 11  2  0
 10 12  1  0
 11 13  1  0
 12 14  2  0
 13 15  2  0
 14 15  1  0
M  END
>  <%Rank>  (209) 
15.877863

>  <N_hits>  (209) 
2

>  <submitter_name>  (209) 
nan

>  <original SMILES>  (209) 
nan

>  <∆G_unbound>  (209) 
0.1705

>  <∆G_bound>  (209) 
-6.252682

>  <regarded>  (209) 
mArh-mac-327_0_A_α,MAC-257_0_A_α

>  <ref_pdb>  (209) 
nan

>  <smiles>  (209) 
O=C(O)c1ccc(-c2ccccc2)nc1

>  <submitter_email>  (209) 
nan

>  <disregarded>  (209) 


>  <LE>  (209) 
-0.428212

>  <submitter_institution>  (209) 
nan

>  <ref_mols>  (209) 
mArh-mac-327_0_A,MAC-257_0_A

>  <N_constrained_atoms>  (209) 
15.0

>  <ref_url>  (209) 
nan

>  <method>  (209) 
nan

>  <comRMSD>  (209) 
0.507585

>  <N_unconstrained_atoms>  (209) 
0.0

>  <∆∆G>  (209) 
-6.423182

>  <runtime>  (209) 
30.800143

>  <generation_date>  (209) 
nan

$$$$
mArh-5cms_A_0_A_β-5CMS_0_B_δ
     RDKit          3D

 21 22  0  0  0  0  0  0  0  0999 V2000
   -1.5140   20.2240   -8.2390 O   0  0  0  0  0  0  0  0  0  0  0  0
   -0.1360   19.6520   -7.6970 P   0  0  0  0  0  0  0  0  0  0  0  0
   -0.4090   18.7800   -6.4090 O   0  0  0  0  0  0  0  0  0  0  0  0
    0.9590   20.6720   -7.5960 O   0  0  0  0  0  0  0  0  0  0  0  0
    0.1770   18.5430   -8.7990 O   0  0  0  0  0  0  0  0  0  0  0  0
   -1.8200   18.2480   -5.9440 P   0  0  2  0  0  0  0  0  0  0  0  0
   -1.6310   17.5520   -4.5270 O   0  0  0  0  0  0  0  0  0  0  0  0
   -2.6420   17.4810   -6.9120 O   0  0  0  0  0  0  0  0  0  0  0  0
   -2.5310   19.5440   -5.3590 O   0  0  0  0  0  0  0  0  0  0  0  0
   -1.5970   16.1360   -4.4440 C   0  0  0  0  0  0  0  0  0  0  0  0
   -2.8770   15.5580   -3.8430 C   0  0  0  0  0  0  0  0  0  0  0  0
   -2.7500   14.7300   -2.5520 C   0  0  1  0  0  0  0  0  0  0  0  0
   -1.3580   14.6290   -2.1110 N   0  0  0  0  0  0  0  0  0  0  0  0
   -3.5620   15.1620   -1.3910 N   0  0  0  0  0  0  0  0  0  0  0  0
   -1.3770   15.0430   -0.7300 C   0  0  1  0  0  0  0  0  0  0  0  0
   -2.7360   14.5270   -0.3260 C   0  0  1  0  0  0  0  0  0  0  0  0
   -0.2910   14.3760   -0.0420 N   0  0  0  0  0  0  0  0  0  0  0  0
   -2.9420   14.9230    1.1290 C   0  0  2  0  0  0  0  0  0  0  0  0
   -3.9070   15.9780    1.3550 N   0  0  0  0  0  0  0  0  0  0  0  0
   -0.5580   14.4390    1.3820 C   0  0  0  0  0  0  0  0  0  0  0  0
   -1.6600   15.3470    1.6220 N   0  0  0  0  0  0  0  0  0  0  0  0
  1  2  1  0
  2  3  1  0
  2  4  2  0
  2  5  1  0
  3  6  1  0
  6  7  1  0
  6  8  2  0
  6  9  1  1
  7 10  1  0
 10 11  1  0
 12 11  1  6
 12 13  1  0
 12 14  1  0
 15 13  1  6
 16 14  1  6
 15 16  1  0
 15 17  1  0
 16 18  1  0
 18 19  1  6
 17 20  1  0
 18 21  1  0
 20 21  1  0
M  END
>  <%Rank>  (210) 
15.954198

>  <N_hits>  (210) 
2

>  <submitter_name>  (210) 
nan

>  <original SMILES>  (210) 
nan

>  <∆G_unbound>  (210) 
4.513874

>  <∆G_bound>  (210) 
-9.50113

>  <regarded>  (210) 
mArh-5cms_A_0_A_β,5CMS_0_B_δ

>  <ref_pdb>  (210) 
nan

>  <smiles>  (210) 
NC1NCNC2NC(CCOP(=O)(O)OP(=O)(O)O)NC12

>  <submitter_email>  (210) 
nan

>  <disregarded>  (210) 


>  <LE>  (210) 
-0.667381

>  <submitter_institution>  (210) 
nan

>  <ref_mols>  (210) 
mArh-5cms_A_0_A,5CMS_0_B

>  <N_constrained_atoms>  (210) 
19.0

>  <ref_url>  (210) 
nan

>  <method>  (210) 
nan

>  <comRMSD>  (210) 
0.662615

>  <N_unconstrained_atoms>  (210) 
2.0

>  <∆∆G>  (210) 
-14.015004

>  <runtime>  (210) 
43.522823

>  <generation_date>  (210) 
nan

$$$$
mArh-5cb5_L_0_L_β-4IQY_0_B_α
     RDKit          3D

 17 17  0  0  0  0  0  0  0  0999 V2000
   -1.8220   21.2280   -8.7450 O   0  0  0  0  0  0  0  0  0  0  0  0
   -0.7450   20.3520   -7.8920 P   0  0  2  0  0  0  0  0  0  0  0  0
   -1.3700   19.8890   -6.5070 O   0  0  0  0  0  0  0  0  0  0  0  0
   -3.2260   21.5780   -8.5730 C   0  0  1  0  0  0  0  0  0  0  0  0
    0.5820   21.0290   -7.7130 O   0  0  0  0  0  0  0  0  0  0  0  0
   -0.5270   18.9700   -8.6840 O   0  0  0  0  0  0  0  0  0  0  0  0
   -4.0430   20.7320   -7.7400 O   0  0  0  0  0  0  0  0  0  0  0  0
   -3.5510   23.0380   -8.0920 C   0  0  1  0  0  0  0  0  0  0  0  0
   -1.5090   18.3480   -6.1440 P   0  0  0  0  0  0  0  0  0  0  0  0
   -4.2110   23.8210   -9.1130 O   0  0  0  0  0  0  0  0  0  0  0  0
   -5.1720   21.5820   -7.5950 C   0  0  2  0  0  0  0  0  0  0  0  0
   -4.5260   22.7800   -6.9350 C   0  0  2  0  0  0  0  0  0  0  0  0
   -0.0680   17.6940   -6.2720 O   0  0  0  0  0  0  0  0  0  0  0  0
   -2.5600   17.5930   -6.8250 O   0  0  0  0  0  0  0  0  0  0  0  0
   -1.6800   18.3730   -4.5670 O   0  0  0  0  0  0  0  0  0  0  0  0
   -6.2350   21.0080   -6.8550 O   0  0  0  0  0  0  0  0  0  0  0  0
   -5.4520   23.8690   -6.7400 O   0  0  0  0  0  0  0  0  0  0  0  0
  1  2  1  0
  2  3  1  0
  4  1  1  1
  2  5  2  0
  2  6  1  6
  4  7  1  0
  4  8  1  0
  3  9  1  0
  8 10  1  6
  7 11  1  0
  8 12  1  0
 11 12  1  0
  9 13  1  0
  9 14  2  0
  9 15  1  0
 11 16  1  1
 12 17  1  6
M  END
>  <%Rank>  (211) 
16.030534

>  <N_hits>  (211) 
2

>  <submitter_name>  (211) 
nan

>  <original SMILES>  (211) 
nan

>  <∆G_unbound>  (211) 
1.974322

>  <∆G_bound>  (211) 
-10.829248

>  <regarded>  (211) 
mArh-5cb5_L_0_L_β,4IQY_0_B_α

>  <ref_pdb>  (211) 
nan

>  <smiles>  (211) 
O=P(O)(O)OP(=O)(O)OC1OC(O)C(O)C1O

>  <submitter_email>  (211) 
nan

>  <disregarded>  (211) 


>  <LE>  (211) 
-0.753151

>  <submitter_institution>  (211) 
nan

>  <ref_mols>  (211) 
mArh-5cb5_L_0_L,4IQY_0_B

>  <N_constrained_atoms>  (211) 
17.0

>  <ref_url>  (211) 
nan

>  <method>  (211) 
nan

>  <comRMSD>  (211) 
0.718051

>  <N_unconstrained_atoms>  (211) 
0.0

>  <∆∆G>  (211) 
-12.80357

>  <runtime>  (211) 
34.058509

>  <generation_date>  (211) 
nan

$$$$
mArh-5fud_A_0_A_α-mArh-x0587_0_A_α
     RDKit          3D

 31 32  0  0  0  0  0  0  0  0999 V2000
    0.0190   19.1020   -6.6810 O   0  0  0  0  0  0  0  0  0  0  0  0
   -0.4590   19.7320   -7.8920 S   0  0  0  0  0  0  0  0  0  0  0  0
    0.4730   20.7210   -8.3870 O   0  0  0  0  0  0  0  0  0  0  0  0
   -0.9560   18.7360   -8.8210 O   0  0  0  0  0  0  0  0  0  0  0  0
   -1.8410   20.7110   -7.2780 C   0  0  1  0  0  0  0  0  0  0  0  0
   -2.4820   21.6000   -8.3620 C   0  0  0  0  0  0  0  0  0  0  0  0
   -2.7580   19.7780   -6.4720 C   0  0  0  0  0  0  0  0  0  0  0  0
   -1.8770   18.8970   -5.5590 C   0  0  0  0  0  0  0  0  0  0  0  0
   -3.8950   22.0100   -8.1410 N   0  0  0  0  0  0  0  0  0  0  0  0
   -1.7260   17.4400   -6.0280 C   0  0  0  0  0  0  0  0  0  0  0  0
   -4.4740   22.5620   -9.3760 C   0  0  0  0  0  0  0  0  0  0  0  0
   -3.9730   23.0950   -7.1470 C   0  0  0  0  0  0  0  0  0  0  0  0
   -2.8320   16.3770   -5.7380 C   0  0  0  0  0  0  0  0  0  0  0  0
   -5.9610   22.8660   -9.2110 C   0  0  0  0  0  0  0  0  0  0  0  0
   -5.4250   23.5060   -6.9300 C   0  0  0  0  0  0  0  0  0  0  0  0
   -2.8860   15.8370   -4.2980 C   0  0  0  0  0  0  0  0  0  0  0  0
   -6.1960   23.7760   -8.1240 O   0  0  0  0  0  0  0  0  0  0  0  0
   -4.1040   14.9800   -3.9170 C   0  0  0  0  0  0  0  0  0  0  0  0
   -4.6960   15.4810   -2.6980 O   0  0  0  0  0  0  0  0  0  0  0  0
   -4.5200   14.5730   -1.6000 C   0  0  0  0  0  0  0  0  0  0  0  0
   -3.2130   14.7020   -1.2060 F   0  0  0  0  0  0  0  0  0  0  0  0
   -4.6130   13.3580   -2.1850 F   0  0  0  0  0  0  0  0  0  0  0  0
   -5.5260   14.6540   -0.4320 C   0  0  0  0  0  0  0  0  0  0  0  0
   -6.8460   14.4260   -0.6790 N   0  0  0  0  0  0  0  0  0  0  0  0
   -5.0440   14.9450    0.7950 N   0  0  0  0  0  0  0  0  0  0  0  0
   -7.6940   14.5050    0.3830 C   0  0  0  0  0  0  0  0  0  0  0  0
   -5.9410   15.0110    1.8060 C   0  0  0  0  0  0  0  0  0  0  0  0
   -7.2900   14.8000    1.6650 C   0  0  0  0  0  0  0  0  0  0  0  0
   -8.2560   14.8940    2.7760 C   0  0  0  0  0  0  0  0  0  0  0  0
   -7.7600   15.0050    4.0420 N   0  0  0  0  0  0  0  0  0  0  0  0
   -9.4640   14.8920    2.5530 O   0  0  0  0  0  0  0  0  0  0  0  0
  1  2  2  0
  2  3  2  0
  2  4  1  0
  2  5  1  0
  5  6  1  6
  5  7  1  0
  7  8  1  0
  6  9  1  0
  8 10  1  0
  9 11  1  0
  9 12  1  0
 10 13  1  0
 11 14  1  0
 12 15  1  0
 13 16  1  0
 14 17  1  0
 15 17  1  0
 16 18  1  0
 18 19  1  0
 19 20  1  0
 20 21  1  0
 20 22  1  0
 20 23  1  0
 23 24  2  0
 23 25  1  0
 24 26  1  0
 25 27  2  0
 26 28  2  0
 27 28  1  0
 28 29  1  0
 29 30  1  0
 29 31  2  0
M  CHG  1   4  -1
M  END
>  <%Rank>  (212) 
16.10687

>  <N_hits>  (212) 
2

>  <submitter_name>  (212) 
nan

>  <original SMILES>  (212) 
nan

>  <∆G_unbound>  (212) 
2.722946

>  <∆G_bound>  (212) 
-11.642076

>  <regarded>  (212) 
mArh-5fud_A_0_A_α,mArh-x0587_0_A_α

>  <ref_pdb>  (212) 
nan

>  <smiles>  (212) 
NC(=O)c1cnc(C(F)(F)OCCCCCCC(CN2CCOCC2)S(=O)(=O)[O-])nc1

>  <submitter_email>  (212) 
nan

>  <disregarded>  (212) 


>  <LE>  (212) 
-0.463388

>  <submitter_institution>  (212) 
nan

>  <ref_mols>  (212) 
mArh-5fud_A_0_A,mArh-x0587_0_A

>  <N_constrained_atoms>  (212) 
25.0

>  <ref_url>  (212) 
nan

>  <method>  (212) 
nan

>  <comRMSD>  (212) 
0.598175

>  <N_unconstrained_atoms>  (212) 
6.0

>  <∆∆G>  (212) 
-14.365021

>  <runtime>  (212) 
43.675242

>  <generation_date>  (212) 
nan

$$$$
5CB5_0_P_β-6WOJ_0_D_δ
     RDKit          3D

 21 22  0  0  0  0  0  0  0  0999 V2000
   -1.6720   20.7740   -7.2960 O   0  0  0  0  0  0  0  0  0  0  0  0
   -0.7400   19.7940   -8.0030 P   0  0  0  0  0  0  0  0  0  0  0  0
   -0.6750   18.7580   -6.7090 O   0  0  0  0  0  0  0  0  0  0  0  0
    0.3680   20.9820   -8.0770 O   0  0  0  0  0  0  0  0  0  0  0  0
    0.1670   18.8730   -8.7680 O   0  0  0  0  0  0  0  0  0  0  0  0
   -1.8380   18.1380   -5.9400 P   0  0  0  0  0  0  0  0  0  0  0  0
   -0.9580   17.2130   -4.9840 O   0  0  0  0  0  0  0  0  0  0  0  0
   -2.5880   17.5760   -7.2320 O   0  0  0  0  0  0  0  0  0  0  0  0
   -2.2190   19.7340   -5.4660 O   0  0  0  0  0  0  0  0  0  0  0  0
   -1.3680   15.9190   -4.6960 C   0  0  0  0  0  0  0  0  0  0  0  0
   -2.3950   15.9890   -3.5850 C   0  0  0  0  0  0  0  0  0  0  0  0
   -2.5010   14.7510   -2.7530 C   0  0  1  0  0  0  0  0  0  0  0  0
   -1.2280   14.2900   -2.2750 N   0  0  0  0  0  0  0  0  0  0  0  0
   -3.3010   15.0290   -1.5700 N   0  0  0  0  0  0  0  0  0  0  0  0
   -1.3530   13.9160   -0.8990 C   0  0  2  0  0  0  0  0  0  0  0  0
   -2.6960   14.3120   -0.4760 C   0  0  1  0  0  0  0  0  0  0  0  0
   -0.3120   14.5420   -0.1550 N   0  0  0  0  0  0  0  0  0  0  0  0
   -2.6960   15.0800    0.7650 C   0  0  1  0  0  0  0  0  0  0  0  0
   -4.0270   15.1810    1.3710 N   0  0  0  0  0  0  0  0  0  0  0  0
   -0.4600   14.1960    1.2520 C   0  0  0  0  0  0  0  0  0  0  0  0
   -1.7780   14.5920    1.7290 N   0  0  0  0  0  0  0  0  0  0  0  0
  1  2  1  0
  2  3  1  0
  2  4  1  0
  2  5  1  0
  3  6  1  0
  6  7  1  0
  6  8  1  0
  6  9  1  0
  7 10  1  0
 10 11  1  0
 12 11  1  1
 12 13  1  0
 12 14  1  0
 15 13  1  6
 16 14  1  6
 15 16  1  0
 15 17  1  0
 16 18  1  0
 18 19  1  1
 17 20  1  0
 18 21  1  0
 20 21  1  0
M  CHG  2   4  -1   8  -1
M  END
>  <%Rank>  (213) 
16.183206

>  <N_hits>  (213) 
2

>  <submitter_name>  (213) 
nan

>  <original SMILES>  (213) 
nan

>  <∆G_unbound>  (213) 
3.447241

>  <∆G_bound>  (213) 
-6.450773

>  <regarded>  (213) 
5CB5_0_P_β,6WOJ_0_D_δ

>  <ref_pdb>  (213) 
nan

>  <smiles>  (213) 
NC1NCNC2NC(CCO[PH]([O-])(O)O[PH]([O-])(O)O)NC12

>  <submitter_email>  (213) 
nan

>  <disregarded>  (213) 


>  <LE>  (213) 
-0.471334

>  <submitter_institution>  (213) 
nan

>  <ref_mols>  (213) 
5CB5_0_P,6WOJ_0_D

>  <N_constrained_atoms>  (213) 
19.0

>  <ref_url>  (213) 
nan

>  <method>  (213) 
nan

>  <comRMSD>  (213) 
0.567252

>  <N_unconstrained_atoms>  (213) 
2.0

>  <∆∆G>  (213) 
-9.898015

>  <runtime>  (213) 
34.936579

>  <generation_date>  (213) 
nan

$$$$
2BFQ_1_A_β-6WOJ_0_A_β
     RDKit          3D

  9  8  0  0  0  0  0  0  0  0999 V2000
   -1.6830   20.8440   -7.8860 O   0  0  0  0  0  0  0  0  0  0  0  0
   -0.2430   20.1110   -7.9200 P   0  0  0  0  0  0  0  0  0  0  0  0
   -0.2760   19.3340   -6.6430 O   0  0  0  0  0  0  0  0  0  0  0  0
   -0.0340   18.6990   -8.7310 O   0  0  0  0  0  0  0  0  0  0  0  0
    1.1340   20.9940   -7.4720 O   0  0  0  0  0  0  0  0  0  0  0  0
   -1.5760   18.6100   -5.9730 P   0  0  0  0  0  0  0  0  0  0  0  0
   -0.7810   17.3520   -5.6530 O   0  0  0  0  0  0  0  0  0  0  0  0
   -1.8680   18.8480   -4.4000 O   0  0  0  0  0  0  0  0  0  0  0  0
   -2.6990   17.8330   -6.9030 O   0  0  0  0  0  0  0  0  0  0  0  0
  1  2  1  0
  2  3  1  0
  2  4  1  0
  2  5  1  0
  3  6  1  0
  6  7  1  0
  6  8  1  0
  6  9  1  0
M  CHG  2   4  -1   8  -1
M  END
>  <%Rank>  (214) 
16.259542

>  <N_hits>  (214) 
2

>  <submitter_name>  (214) 
nan

>  <original SMILES>  (214) 
nan

>  <∆G_unbound>  (214) 
0.654534

>  <∆G_bound>  (214) 
-6.027184

>  <regarded>  (214) 
2BFQ_1_A_β,6WOJ_0_A_β

>  <ref_pdb>  (214) 
nan

>  <smiles>  (214) 
[O-][PH](O)(O)O[PH]([O-])(O)O

>  <submitter_email>  (214) 
nan

>  <disregarded>  (214) 


>  <LE>  (214) 
-0.742413

>  <submitter_institution>  (214) 
nan

>  <ref_mols>  (214) 
2BFQ_1_A,6WOJ_0_A

>  <N_constrained_atoms>  (214) 
9.0

>  <ref_url>  (214) 
nan

>  <method>  (214) 
nan

>  <comRMSD>  (214) 
0.490268

>  <N_unconstrained_atoms>  (214) 
0.0

>  <∆∆G>  (214) 
-6.681718

>  <runtime>  (214) 
30.837755

>  <generation_date>  (214) 
nan

$$$$
5CB5_0_I_δ-mArh-5cb5_H_0_H_β
     RDKit          3D

 21 22  0  0  0  0  0  0  0  0999 V2000
   -4.0760   15.5550    1.6910 N   0  0  0  0  0  0  0  0  0  0  0  0
   -2.8180   15.4600    0.9710 C   0  0  2  0  0  0  0  0  0  0  0  0
   -2.8910   14.6840   -0.3260 C   0  0  2  0  0  0  0  0  0  0  0  0
   -1.8530   14.7920    1.8170 N   0  0  0  0  0  0  0  0  0  0  0  0
   -1.4510   14.7270   -0.7700 C   0  0  2  0  0  0  0  0  0  0  0  0
   -3.5880   15.2970   -1.5030 N   0  0  0  0  0  0  0  0  0  0  0  0
   -0.4960   14.6570    1.2560 C   0  0  0  0  0  0  0  0  0  0  0  0
   -1.5400   14.4380   -2.1520 N   0  0  0  0  0  0  0  0  0  0  0  0
   -2.4340   15.5320   -2.3800 C   0  0  1  0  0  0  0  0  0  0  0  0
   -0.5590   13.9580    0.0020 N   0  0  0  0  0  0  0  0  0  0  0  0
   -2.6290   15.8780   -3.8360 C   0  0  0  0  0  0  0  0  0  0  0  0
   -1.4670   16.7950   -4.2160 C   0  0  0  0  0  0  0  0  0  0  0  0
   -1.9200   18.0630   -4.6630 O   0  0  0  0  0  0  0  0  0  0  0  0
   -1.6630   18.2940   -6.2010 P   0  0  1  0  0  0  0  0  0  0  0  0
   -1.1100   19.7110   -6.5520 O   0  0  0  0  0  0  0  0  0  0  0  0
   -0.3140   17.4490   -6.3350 O   0  0  0  0  0  0  0  0  0  0  0  0
   -2.6820   17.7380   -7.0790 O   0  0  0  0  0  0  0  0  0  0  0  0
   -0.3440   20.0780   -7.8730 P   0  0  0  0  0  0  0  0  0  0  0  0
   -1.4160   20.8690   -8.7420 O   0  0  0  0  0  0  0  0  0  0  0  0
    0.9100   20.8620   -7.6960 O   0  0  0  0  0  0  0  0  0  0  0  0
   -0.1290   18.7520   -8.7420 O   0  0  0  0  0  0  0  0  0  0  0  0
  2  1  1  1
  2  3  1  0
  2  4  1  0
  3  5  1  0
  3  6  1  6
  4  7  1  0
  5  8  1  6
  6  9  1  0
  8  9  1  0
  5 10  1  0
  7 10  1  0
  9 11  1  6
 11 12  1  0
 12 13  1  0
 13 14  1  0
 14 15  1  0
 14 16  1  6
 14 17  2  0
 15 18  1  0
 18 19  1  0
 18 20  2  0
 18 21  1  0
M  END
>  <%Rank>  (215) 
16.335878

>  <N_hits>  (215) 
2

>  <submitter_name>  (215) 
nan

>  <original SMILES>  (215) 
nan

>  <∆G_unbound>  (215) 
1.894859

>  <∆G_bound>  (215) 
-9.912841

>  <regarded>  (215) 
5CB5_0_I_δ,mArh-5cb5_H_0_H_β

>  <ref_pdb>  (215) 
nan

>  <smiles>  (215) 
NC1NCNC2NC(CCOP(=O)(O)OP(=O)(O)O)NC12

>  <submitter_email>  (215) 
nan

>  <disregarded>  (215) 


>  <LE>  (215) 
-0.562271

>  <submitter_institution>  (215) 
nan

>  <ref_mols>  (215) 
5CB5_0_I,mArh-5cb5_H_0_H

>  <N_constrained_atoms>  (215) 
19.0

>  <ref_url>  (215) 
nan

>  <method>  (215) 
nan

>  <comRMSD>  (215) 
0.613389

>  <N_unconstrained_atoms>  (215) 
2.0

>  <∆∆G>  (215) 
-11.8077

>  <runtime>  (215) 
34.949845

>  <generation_date>  (215) 
nan

$$$$
mArh-5cb5_N_0_N_β-mArh-EU0087_0_A_α
     RDKit          3D

 22 22  0  0  0  0  0  0  0  0999 V2000
   -1.6300   20.4350   -8.2630 O   0  0  0  0  0  0  0  0  0  0  0  0
   -0.2620   19.7880   -7.7820 P   0  0  0  0  0  0  0  0  0  0  0  0
   -0.5010   19.0240   -6.4300 O   0  0  0  0  0  0  0  0  0  0  0  0
    0.8270   20.7950   -7.7550 O   0  0  0  0  0  0  0  0  0  0  0  0
    0.0090   18.6660   -8.8740 O   0  0  0  0  0  0  0  0  0  0  0  0
   -1.8670   18.4070   -5.9730 P   0  0  2  0  0  0  0  0  0  0  0  0
   -1.6870   17.5430   -4.6380 O   0  0  0  0  0  0  0  0  0  0  0  0
   -2.7350   17.8070   -6.9950 O   0  0  0  0  0  0  0  0  0  0  0  0
   -2.5860   19.6540   -5.2860 O   0  0  0  0  0  0  0  0  0  0  0  0
   -2.3280   16.2600   -4.6120 C   0  0  0  0  0  0  0  0  0  0  0  0
   -2.3540   15.6980   -3.1860 C   0  0  0  0  0  0  0  0  0  0  0  0
   -3.6670   15.0240   -2.7440 C   0  0  0  0  0  0  0  0  0  0  0  0
   -4.3010   15.6100   -1.4670 C   0  0  0  0  0  0  0  0  0  0  0  0
   -5.1310   14.6820   -0.7250 N   0  0  0  0  0  0  0  0  0  0  0  0
   -4.8860   14.2900    0.4750 C   0  0  0  0  0  0  0  0  0  0  0  0
   -3.7910   14.6500    1.2280 N   0  0  0  0  0  0  0  0  0  0  0  0
   -5.8420   13.3550    1.1870 C   0  0  0  0  0  0  0  0  0  0  0  0
   -2.4860   14.6830    0.8790 C   0  0  0  0  0  0  0  0  0  0  0  0
   -1.5490   14.5890    1.7900 N   0  0  0  0  0  0  0  0  0  0  0  0
   -1.8630   14.8380   -0.7240 S   0  0  0  0  0  0  0  0  0  0  0  0
   -0.2650   14.7700   -0.1420 C   0  0  0  0  0  0  0  0  0  0  0  0
   -0.3040   14.6370    1.2220 C   0  0  0  0  0  0  0  0  0  0  0  0
  1  2  1  0
  2  3  1  0
  2  4  2  0
  2  5  1  0
  3  6  1  0
  6  7  1  0
  6  8  2  0
  6  9  1  1
  7 10  1  0
 10 11  1  0
 11 12  1  0
 12 13  1  0
 13 14  1  0
 14 15  2  3
 15 16  1  0
 15 17  1  0
 16 18  1  0
 18 19  2  0
 18 20  1  0
 20 21  1  0
 19 22  1  0
 21 22  2  0
M  END
>  <%Rank>  (216) 
16.412214

>  <N_hits>  (216) 
2

>  <submitter_name>  (216) 
nan

>  <original SMILES>  (216) 
nan

>  <∆G_unbound>  (216) 
0.970115

>  <∆G_bound>  (216) 
-15.543705

>  <regarded>  (216) 
mArh-5cb5_N_0_N_β,mArh-EU0087_0_A_α

>  <ref_pdb>  (216) 
nan

>  <smiles>  (216) 
CC(=NCCCCOP(=O)(O)OP(=O)(O)O)Nc1nccs1

>  <submitter_email>  (216) 
nan

>  <disregarded>  (216) 


>  <LE>  (216) 
-0.750628

>  <submitter_institution>  (216) 
nan

>  <ref_mols>  (216) 
mArh-5cb5_N_0_N,mArh-EU0087_0_A

>  <N_constrained_atoms>  (216) 
18.0

>  <ref_url>  (216) 
nan

>  <method>  (216) 
nan

>  <comRMSD>  (216) 
0.628886

>  <N_unconstrained_atoms>  (216) 
4.0

>  <∆∆G>  (216) 
-16.51382

>  <runtime>  (216) 
30.766128

>  <generation_date>  (216) 
nan

$$$$
mArh-EU0238_0_A_α-mArh-5cms_I_8_I_γ
     RDKit          3D

 19 20  0  0  0  0  0  0  0  0999 V2000
   -6.4480   14.3000    1.4770 C   0  0  0  0  0  0  0  0  0  0  0  0
   -7.6290   14.3960    0.5980 N   0  0  0  0  0  0  0  0  0  0  0  0
   -5.1660   14.6110    0.7010 C   0  0  0  0  0  0  0  0  0  0  0  0
   -5.1920   14.7620   -0.5300 O   0  0  0  0  0  0  0  0  0  0  0  0
   -3.9730   14.7230    1.3180 N   0  0  0  0  0  0  0  0  0  0  0  0
   -2.6950   14.6090    0.8610 C   0  0  0  0  0  0  0  0  0  0  0  0
   -2.2700   14.5190   -0.7880 S   0  0  0  0  0  0  0  0  0  0  0  0
   -1.7010   14.5540    1.7120 N   0  0  0  0  0  0  0  0  0  0  0  0
   -0.5210   14.4420    1.0200 C   0  0  0  0  0  0  0  0  0  0  0  0
   -0.6170   14.3970   -0.3660 C   0  0  0  0  0  0  0  0  0  0  0  0
    0.5230   14.2530   -1.3490 C   0  0  0  0  0  0  0  0  0  0  0  0
    0.3200   14.4950   -2.8830 C   0  0  2  0  0  0  0  0  0  0  0  0
    0.4300   15.9030   -3.1900 O   0  0  0  0  0  0  0  0  0  0  0  0
   -0.9640   14.0730   -3.6170 C   0  0  2  0  0  0  0  0  0  0  0  0
   -1.1160   12.6600   -3.7720 O   0  0  0  0  0  0  0  0  0  0  0  0
   -0.1930   16.0890   -4.4780 C   0  0  2  0  0  0  0  0  0  0  0  0
   -0.5930   14.6850   -4.9510 C   0  0  1  0  0  0  0  0  0  0  0  0
    0.7450   16.8610   -5.3880 C   0  0  0  0  0  0  0  0  0  0  0  0
    0.5190   13.9490   -5.4850 O   0  0  0  0  0  0  0  0  0  0  0  0
  1  2  1  0
  1  3  1  0
  3  4  2  0
  3  5  1  0
  5  6  1  0
  6  7  1  0
  6  8  2  0
  8  9  1  0
  7 10  1  0
  9 10  2  0
 10 11  1  0
 12 11  1  1
 12 13  1  0
 12 14  1  0
 14 15  1  6
 13 16  1  0
 14 17  1  0
 16 17  1  0
 16 18  1  6
 17 19  1  1
M  END
>  <%Rank>  (217) 
16.48855

>  <N_hits>  (217) 
2

>  <submitter_name>  (217) 
nan

>  <original SMILES>  (217) 
nan

>  <∆G_unbound>  (217) 
0.427269

>  <∆G_bound>  (217) 
-7.284587

>  <regarded>  (217) 
mArh-EU0238_0_A_α,mArh-5cms_I_8_I_γ

>  <ref_pdb>  (217) 
nan

>  <smiles>  (217) 
CC1OC(Cc2cnc(NC(=O)CN)s2)C(O)C1O

>  <submitter_email>  (217) 
nan

>  <disregarded>  (217) 


>  <LE>  (217) 
-0.405887

>  <submitter_institution>  (217) 
nan

>  <ref_mols>  (217) 
mArh-EU0238_0_A,mArh-5cms_I_8_I

>  <N_constrained_atoms>  (217) 
18.0

>  <ref_url>  (217) 
nan

>  <method>  (217) 
nan

>  <comRMSD>  (217) 
0.54135

>  <N_unconstrained_atoms>  (217) 
1.0

>  <∆∆G>  (217) 
-7.711856

>  <runtime>  (217) 
33.37755

>  <generation_date>  (217) 
nan

$$$$
mArh-5cb5_P_0_P_γ-mArh-x0895_1_A_α
     RDKit          3D

 17 18  0  0  0  0  0  0  0  0999 V2000
   -0.8000   12.4730   -3.5090 O   0  0  0  0  0  0  0  0  0  0  0  0
   -1.1340   13.8300   -3.8330 C   0  0  1  0  0  0  0  0  0  0  0  0
   -0.9350   14.8410   -2.6700 C   0  0  1  0  0  0  0  0  0  0  0  0
   -0.2140   14.3600   -4.9340 C   0  0  2  0  0  0  0  0  0  0  0  0
    1.0550   13.7100   -4.9240 O   0  0  0  0  0  0  0  0  0  0  0  0
   -0.3910   14.2930   -1.3250 C   0  0  0  0  0  0  0  0  0  0  0  0
   -0.0650   15.8800   -3.1820 O   0  0  0  0  0  0  0  0  0  0  0  0
   -0.2250   15.8500   -4.6080 C   0  0  1  0  0  0  0  0  0  0  0  0
    0.7960   16.7410   -5.2930 C   0  0  0  0  0  0  0  0  0  0  0  0
   -0.5020   15.2610   -0.1280 C   0  0  0  0  0  0  0  0  0  0  0  0
   -1.4990   14.8410    0.8820 N   0  0  0  0  0  0  0  0  0  0  0  0
   -2.7420   14.8680    0.5500 C   0  0  0  0  0  0  0  0  0  0  0  0
   -3.1860   15.2880   -0.8340 C   0  0  0  0  0  0  0  0  0  0  0  0
   -3.8540   14.5540    1.2810 N   0  0  0  0  0  0  0  0  0  0  0  0
   -4.6090   15.2650   -0.6730 N   0  0  0  0  0  0  0  0  0  0  0  0
   -4.9760   14.8360    0.5750 C   0  0  0  0  0  0  0  0  0  0  0  0
   -6.1310   14.7370    0.9520 O   0  0  0  0  0  0  0  0  0  0  0  0
  2  1  1  1
  2  3  1  0
  2  4  1  0
  4  5  1  1
  3  6  1  1
  3  7  1  0
  4  8  1  0
  7  8  1  0
  8  9  1  6
  6 10  1  0
 10 11  1  0
 11 12  2  3
 12 13  1  0
 12 14  1  0
 13 15  1  0
 14 16  1  0
 15 16  1  0
 16 17  2  0
M  END
>  <%Rank>  (218) 
16.564885

>  <N_hits>  (218) 
2

>  <submitter_name>  (218) 
nan

>  <original SMILES>  (218) 
nan

>  <∆G_unbound>  (218) 
1.531115

>  <∆G_bound>  (218) 
-4.09795

>  <regarded>  (218) 
mArh-5cb5_P_0_P_γ,mArh-x0895_1_A_α

>  <ref_pdb>  (218) 
nan

>  <smiles>  (218) 
CC1OC(CCN=C2CNC(=O)N2)C(O)C1O

>  <submitter_email>  (218) 
nan

>  <disregarded>  (218) 


>  <LE>  (218) 
-0.331122

>  <submitter_institution>  (218) 
nan

>  <ref_mols>  (218) 
mArh-5cb5_P_0_P,mArh-x0895_1_A

>  <N_constrained_atoms>  (218) 
15.0

>  <ref_url>  (218) 
nan

>  <method>  (218) 
nan

>  <comRMSD>  (218) 
0.397612

>  <N_unconstrained_atoms>  (218) 
2.0

>  <∆∆G>  (218) 
-5.629066

>  <runtime>  (218) 
31.984097

>  <generation_date>  (218) 
nan

$$$$
mArh-5cms_D_3_D_γ-mArh-5cb5_R_0_R_β
     RDKit          3D

 21 22  0  0  0  0  0  0  0  0999 V2000
   -4.2100   15.6070    1.6770 N   0  0  0  0  0  0  0  0  0  0  0  0
   -2.9370   15.5230    0.9870 C   0  0  2  0  0  0  0  0  0  0  0  0
   -2.9760   14.7640   -0.3240 C   0  0  2  0  0  0  0  0  0  0  0  0
   -1.9990   14.8270    1.8410 N   0  0  0  0  0  0  0  0  0  0  0  0
   -1.5240   14.7770   -0.7310 C   0  0  2  0  0  0  0  0  0  0  0  0
   -3.6240   15.3970   -1.5140 N   0  0  0  0  0  0  0  0  0  0  0  0
   -0.6250   14.7370    1.3060 C   0  0  0  0  0  0  0  0  0  0  0  0
   -1.5790   14.4640   -2.1050 N   0  0  0  0  0  0  0  0  0  0  0  0
   -2.4420   15.5750   -2.3710 C   0  0  1  0  0  0  0  0  0  0  0  0
   -0.6570   14.0090    0.0740 N   0  0  0  0  0  0  0  0  0  0  0  0
   -2.5900   15.8990   -3.8340 C   0  0  0  0  0  0  0  0  0  0  0  0
   -1.4020   16.7920   -4.1900 C   0  0  0  0  0  0  0  0  0  0  0  0
   -1.8250   18.0640   -4.6400 O   0  0  0  0  0  0  0  0  0  0  0  0
   -1.5800   18.2540   -6.1850 P   0  0  1  0  0  0  0  0  0  0  0  0
   -1.0420   19.6700   -6.5660 O   0  0  0  0  0  0  0  0  0  0  0  0
   -0.2200   17.4190   -6.2930 O   0  0  0  0  0  0  0  0  0  0  0  0
   -2.6130   17.6550   -7.0380 O   0  0  0  0  0  0  0  0  0  0  0  0
   -0.2090   20.0190   -7.8490 P   0  0  0  0  0  0  0  0  0  0  0  0
   -1.2660   20.7610   -8.7780 O   0  0  0  0  0  0  0  0  0  0  0  0
    1.0230   20.8560   -7.6280 O   0  0  0  0  0  0  0  0  0  0  0  0
    0.0580   18.6770   -8.6880 O   0  0  0  0  0  0  0  0  0  0  0  0
  2  1  1  1
  2  3  1  0
  2  4  1  0
  3  5  1  0
  3  6  1  6
  4  7  1  0
  5  8  1  6
  6  9  1  0
  8  9  1  0
  5 10  1  0
  7 10  1  0
  9 11  1  6
 11 12  1  0
 12 13  1  0
 13 14  1  0
 14 15  1  0
 14 16  1  6
 14 17  2  0
 15 18  1  0
 18 19  1  0
 18 20  2  0
 18 21  1  0
M  END
>  <%Rank>  (219) 
16.641221

>  <N_hits>  (219) 
2

>  <submitter_name>  (219) 
nan

>  <original SMILES>  (219) 
nan

>  <∆G_unbound>  (219) 
1.894859

>  <∆G_bound>  (219) 
-9.504799

>  <regarded>  (219) 
mArh-5cms_D_3_D_γ,mArh-5cb5_R_0_R_β

>  <ref_pdb>  (219) 
nan

>  <smiles>  (219) 
NC1NCNC2NC(CCOP(=O)(O)OP(=O)(O)O)NC12

>  <submitter_email>  (219) 
nan

>  <disregarded>  (219) 


>  <LE>  (219) 
-0.542841

>  <submitter_institution>  (219) 
nan

>  <ref_mols>  (219) 
mArh-5cms_D_3_D,mArh-5cb5_R_0_R

>  <N_constrained_atoms>  (219) 
19.0

>  <ref_url>  (219) 
nan

>  <method>  (219) 
nan

>  <comRMSD>  (219) 
0.606912

>  <N_unconstrained_atoms>  (219) 
2.0

>  <∆∆G>  (219) 
-11.399658

>  <runtime>  (219) 
38.184477

>  <generation_date>  (219) 
nan

$$$$
mArh-5cb5_Q_0_Q_γ-mArh-x0895_1_A_α
     RDKit          3D

 18 19  0  0  0  0  0  0  0  0999 V2000
   -0.6200   12.7450   -4.0720 O   0  0  0  0  0  0  0  0  0  0  0  0
   -0.5760   14.1690   -4.0270 C   0  0  1  0  0  0  0  0  0  0  0  0
    0.0880   14.7730   -2.7980 C   0  0  2  0  0  0  0  0  0  0  0  0
    0.3760   14.6850   -5.0950 C   0  0  2  0  0  0  0  0  0  0  0  0
    1.4980   13.8020   -5.1880 O   0  0  0  0  0  0  0  0  0  0  0  0
   -0.7040   14.6540   -1.4780 C   0  0  0  0  0  0  0  0  0  0  0  0
    0.2490   16.1460   -3.2140 O   0  0  0  0  0  0  0  0  0  0  0  0
    0.8090   16.0510   -4.5490 C   0  0  2  0  0  0  0  0  0  0  0  0
    0.3310   17.2310   -5.3900 C   0  0  0  0  0  0  0  0  0  0  0  0
   -0.0250   14.9910   -0.1330 C   0  0  0  0  0  0  0  0  0  0  0  0
   -0.4380   14.1130    1.0490 C   0  0  0  0  0  0  0  0  0  0  0  0
   -1.7410   14.4520    1.6400 N   0  0  0  0  0  0  0  0  0  0  0  0
   -2.7940   14.6440    0.9030 C   0  0  0  0  0  0  0  0  0  0  0  0
   -3.0130   14.6020   -0.5990 C   0  0  0  0  0  0  0  0  0  0  0  0
   -3.9780   14.9210    1.5090 N   0  0  0  0  0  0  0  0  0  0  0  0
   -4.3760   15.0280   -0.6540 N   0  0  0  0  0  0  0  0  0  0  0  0
   -4.9610   14.9340    0.5760 C   0  0  0  0  0  0  0  0  0  0  0  0
   -6.1590   14.8640    0.7780 O   0  0  0  0  0  0  0  0  0  0  0  0
  2  1  1  1
  2  3  1  0
  2  4  1  0
  4  5  1  1
  3  6  1  1
  3  7  1  0
  4  8  1  0
  7  8  1  0
  8  9  1  6
  6 10  1  0
 10 11  1  0
 11 12  1  0
 12 13  2  3
 13 14  1  0
 13 15  1  0
 14 16  1  0
 15 17  1  0
 16 17  1  0
 17 18  2  0
M  END
>  <%Rank>  (220) 
16.717557

>  <N_hits>  (220) 
2

>  <submitter_name>  (220) 
nan

>  <original SMILES>  (220) 
nan

>  <∆G_unbound>  (220) 
1.628288

>  <∆G_bound>  (220) 
-5.985407

>  <regarded>  (220) 
mArh-5cb5_Q_0_Q_γ,mArh-x0895_1_A_α

>  <ref_pdb>  (220) 
nan

>  <smiles>  (220) 
CC1OC(CCCN=C2CNC(=O)N2)C(O)C1O

>  <submitter_email>  (220) 
nan

>  <disregarded>  (220) 


>  <LE>  (220) 
-0.422983

>  <submitter_institution>  (220) 
nan

>  <ref_mols>  (220) 
mArh-5cb5_Q_0_Q,mArh-x0895_1_A

>  <N_constrained_atoms>  (220) 
15.0

>  <ref_url>  (220) 
nan

>  <method>  (220) 
nan

>  <comRMSD>  (220) 
0.412198

>  <N_unconstrained_atoms>  (220) 
3.0

>  <∆∆G>  (220) 
-7.613695

>  <runtime>  (220) 
36.627093

>  <generation_date>  (220) 
nan

$$$$
mArh-5cms_O_14_O_γ-6MEA_0_A_β
     RDKit          3D

 16 16  0  0  0  0  0  0  0  0999 V2000
   -1.3410   12.6670   -4.1590 O   0  0  0  0  0  0  0  0  0  0  0  0
   -0.1890   13.4280   -3.9990 C   0  0  2  0  0  0  0  0  0  0  0  0
   -0.2790   14.4260   -2.8460 C   0  0  0  0  0  0  0  0  0  0  0  0
    0.0930   14.2950   -5.2000 C   0  0  2  0  0  0  0  0  0  0  0  0
    1.4600   14.1600   -5.4140 O   0  0  0  0  0  0  0  0  0  0  0  0
    0.2280   15.6140   -3.3880 O   0  0  0  0  0  0  0  0  0  0  0  0
   -0.3220   15.6180   -4.6500 C   0  0  1  0  0  0  0  0  0  0  0  0
   -0.0270   16.9310   -5.4020 C   0  0  0  0  0  0  0  0  0  0  0  0
   -1.4420   17.9670   -5.5940 P   0  0  0  0  0  0  0  0  0  0  0  0
   -0.8410   19.2720   -6.1290 O   0  0  0  0  0  0  0  0  0  0  0  0
   -2.4420   17.9470   -6.9700 O   0  0  0  0  0  0  0  0  0  0  0  0
   -1.9380   18.8670   -4.3840 O   0  0  0  0  0  0  0  0  0  0  0  0
   -0.1590   19.6290   -7.5200 P   0  0  0  0  0  0  0  0  0  0  0  0
   -1.4360   20.2810   -8.0740 O   0  0  0  0  0  0  0  0  0  0  0  0
    0.6100   21.1070   -7.7240 O   0  0  0  0  0  0  0  0  0  0  0  0
   -0.0500   18.5070   -8.7090 O   0  0  0  0  0  0  0  0  0  0  0  0
  2  1  1  6
  2  3  1  0
  2  4  1  0
  4  5  1  1
  3  6  1  0
  4  7  1  0
  6  7  1  0
  7  8  1  6
  8  9  1  0
  9 10  1  0
  9 11  1  0
  9 12  1  0
 10 13  1  0
 13 14  1  0
 13 15  1  0
 13 16  1  0
M  CHG  2  11  -1  15  -1
M  END
>  <%Rank>  (221) 
16.793893

>  <N_hits>  (221) 
2

>  <submitter_name>  (221) 
nan

>  <original SMILES>  (221) 
nan

>  <∆G_unbound>  (221) 
0.683631

>  <∆G_bound>  (221) 
-7.692076

>  <regarded>  (221) 
mArh-5cms_O_14_O_γ,6MEA_0_A_β

>  <ref_pdb>  (221) 
nan

>  <smiles>  (221) 
[O-][PH](O)(O)O[PH]([O-])(O)CC1OCC(O)C1O

>  <submitter_email>  (221) 
nan

>  <disregarded>  (221) 


>  <LE>  (221) 
-0.523482

>  <submitter_institution>  (221) 
nan

>  <ref_mols>  (221) 
mArh-5cms_O_14_O,6MEA_0_A

>  <N_constrained_atoms>  (221) 
16.0

>  <ref_url>  (221) 
nan

>  <method>  (221) 
nan

>  <comRMSD>  (221) 
0.586296

>  <N_unconstrained_atoms>  (221) 
0.0

>  <∆∆G>  (221) 
-8.375708

>  <runtime>  (221) 
33.302701

>  <generation_date>  (221) 
nan

$$$$
6WOJ_0_B_δ-mArh-EU0123_0_A_α
     RDKit          3D

 18 20  0  0  0  0  0  0  0  0999 V2000
   -4.1370   15.2080    1.1930 N   0  0  0  0  0  0  0  0  0  0  0  0
   -2.8630   14.5690    0.8680 C   0  0  1  0  0  0  0  0  0  0  0  0
   -2.5470   14.9220   -0.6080 C   0  0  1  0  0  0  0  0  0  0  0  0
   -5.1940   15.1550    0.2810 C   0  0  0  0  0  0  0  0  0  0  0  0
   -1.6970   14.8370    1.7070 N   0  0  0  0  0  0  0  0  0  0  0  0
   -5.0840   15.6040   -1.0330 C   0  0  0  0  0  0  0  0  0  0  0  0
   -6.4530   14.6300    0.6540 C   0  0  0  0  0  0  0  0  0  0  0  0
   -6.7970   14.1050    2.0070 C   0  0  0  0  0  0  0  0  0  0  0  0
   -1.2850   14.1800   -0.9580 C   0  0  1  0  0  0  0  0  0  0  0  0
   -3.3960   14.4790   -1.7170 N   0  0  0  0  0  0  0  0  0  0  0  0
   -0.4340   14.2820    1.2620 C   0  0  0  0  0  0  0  0  0  0  0  0
   -6.1710   15.5080   -1.8800 C   0  0  0  0  0  0  0  0  0  0  0  0
   -7.4700   14.5880   -0.2810 C   0  0  0  0  0  0  0  0  0  0  0  0
   -6.6510   15.0980    3.0100 O   0  0  0  0  0  0  0  0  0  0  0  0
   -1.1340   14.5470   -2.3460 N   0  0  0  0  0  0  0  0  0  0  0  0
   -2.4970   14.7680   -2.8320 C   0  0  0  0  0  0  0  0  0  0  0  0
   -0.1840   14.5740   -0.1380 N   0  0  0  0  0  0  0  0  0  0  0  0
   -7.3610   15.0110   -1.5410 N   0  0  0  0  0  0  0  0  0  0  0  0
  2  1  1  1
  2  3  1  0
  1  4  1  0
  2  5  1  0
  4  6  2  0
  4  7  1  0
  7  8  1  0
  3  9  1  0
  3 10  1  6
  5 11  1  0
  6 12  1  0
  7 13  2  0
  8 14  1  0
  9 15  1  6
 10 16  1  0
 15 16  1  0
  9 17  1  0
 11 17  1  0
 12 18  2  0
 13 18  1  0
M  END
>  <%Rank>  (222) 
16.870229

>  <N_hits>  (222) 
2

>  <submitter_name>  (222) 
nan

>  <original SMILES>  (222) 
nan

>  <∆G_unbound>  (222) 
0.699436

>  <∆G_bound>  (222) 
-1.813021

>  <regarded>  (222) 
6WOJ_0_B_δ,mArh-EU0123_0_A_α

>  <ref_pdb>  (222) 
nan

>  <smiles>  (222) 
OCc1cnccc1NC1NCNC2NCNC21

>  <submitter_email>  (222) 
nan

>  <disregarded>  (222) 


>  <LE>  (222) 
-0.139581

>  <submitter_institution>  (222) 
nan

>  <ref_mols>  (222) 
6WOJ_0_B,mArh-EU0123_0_A

>  <N_constrained_atoms>  (222) 
18.0

>  <ref_url>  (222) 
nan

>  <method>  (222) 
nan

>  <comRMSD>  (222) 
0.439547

>  <N_unconstrained_atoms>  (222) 
0.0

>  <∆∆G>  (222) 
-2.512457

>  <runtime>  (222) 
26.585867

>  <generation_date>  (222) 
nan

$$$$
mArh-x0626_0_A_α-5LW0_1_B_γ
     RDKit          3D

 21 22  0  0  0  0  0  0  0  0999 V2000
   -4.9860   14.8750    1.4660 N   0  0  0  0  0  0  0  0  0  0  0  0
   -6.1500   14.6740    0.7920 C   0  0  0  0  0  0  0  0  0  0  0  0
   -6.1570   14.7870   -0.4390 O   0  0  0  0  0  0  0  0  0  0  0  0
   -3.7520   15.0200    0.9290 C   0  0  0  0  0  0  0  0  0  0  0  0
   -7.3990   14.3250    1.5740 C   0  0  0  0  0  0  0  0  0  0  0  0
   -2.5770   14.8160    1.4820 N   0  0  0  0  0  0  0  0  0  0  0  0
   -3.7800   15.5380   -0.6960 S   0  0  0  0  0  0  0  0  0  0  0  0
   -8.6690   14.6360    0.7960 C   0  0  0  0  0  0  0  0  0  0  0  0
   -2.0800   15.4990   -0.6960 C   0  0  0  0  0  0  0  0  0  0  0  0
   -1.6170   15.0890    0.5380 C   0  0  0  0  0  0  0  0  0  0  0  0
   -0.2070   14.9200    0.8860 C   0  0  0  0  0  0  0  0  0  0  0  0
    0.3910   14.0230   -0.1760 C   0  0  0  0  0  0  0  0  0  0  0  0
   -0.6300   13.6030   -1.2350 C   0  0  0  0  0  0  0  0  0  0  0  0
   -0.0920   13.8960   -2.6310 C   0  0  2  0  0  0  0  0  0  0  0  0
   -0.1150   15.3050   -2.9710 O   0  0  0  0  0  0  0  0  0  0  0  0
   -0.8680   13.2690   -3.7780 C   0  0  2  0  0  0  0  0  0  0  0  0
   -0.7330   11.8440   -3.7950 O   0  0  0  0  0  0  0  0  0  0  0  0
   -0.2050   15.3620   -4.4220 C   0  0  2  0  0  0  0  0  0  0  0  0
   -0.0760   13.9050   -4.8910 C   0  0  1  0  0  0  0  0  0  0  0  0
    0.8400   16.3160   -4.9700 C   0  0  0  0  0  0  0  0  0  0  0  0
    1.2790   13.4400   -4.8310 O   0  0  0  0  0  0  0  0  0  0  0  0
  1  2  1  0
  2  3  2  0
  1  4  1  0
  2  5  1  0
  4  6  2  0
  4  7  1  0
  5  8  1  0
  7  9  1  0
  6 10  1  0
  9 10  2  0
 10 11  1  0
 11 12  1  0
 12 13  1  0
 14 13  1  1
 14 15  1  0
 14 16  1  0
 16 17  1  1
 15 18  1  0
 16 19  1  0
 18 19  1  0
 18 20  1  6
 19 21  1  1
M  END
>  <%Rank>  (223) 
16.946565

>  <N_hits>  (223) 
2

>  <submitter_name>  (223) 
nan

>  <original SMILES>  (223) 
nan

>  <∆G_unbound>  (223) 
0.11782

>  <∆G_bound>  (223) 
-6.831169

>  <regarded>  (223) 
mArh-x0626_0_A_α,5LW0_1_B_γ

>  <ref_pdb>  (223) 
nan

>  <smiles>  (223) 
CCC(=O)Nc1nc(CCCC2OC(C)C(O)C2O)cs1

>  <submitter_email>  (223) 
nan

>  <disregarded>  (223) 


>  <LE>  (223) 
-0.330904

>  <submitter_institution>  (223) 
nan

>  <ref_mols>  (223) 
mArh-x0626_0_A,5LW0_1_B

>  <N_constrained_atoms>  (223) 
19.0

>  <ref_url>  (223) 
nan

>  <method>  (223) 
nan

>  <comRMSD>  (223) 
0.503548

>  <N_unconstrained_atoms>  (223) 
2.0

>  <∆∆G>  (223) 
-6.948989

>  <runtime>  (223) 
45.531846

>  <generation_date>  (223) 
nan

$$$$
2BFQ_1_A_γ-mArh-x0371_0_A_β
     RDKit          3D

 19 21  0  0  0  0  0  0  0  0999 V2000
   -1.0490   12.8440   -3.8600 O   0  0  0  0  0  0  0  0  0  0  0  0
   -1.0750   14.0610   -4.6120 C   0  0  1  0  0  0  0  0  0  0  0  0
   -1.5680   15.2970   -3.8800 C   0  0  1  0  0  0  0  0  0  0  0  0
    0.3810   14.4930   -4.8790 C   0  0  2  0  0  0  0  0  0  0  0  0
    1.2890   13.4380   -4.6110 O   0  0  0  0  0  0  0  0  0  0  0  0
   -3.0470   15.4380   -3.4410 C   0  0  0  0  0  0  0  0  0  0  0  0
   -0.4960   15.6530   -3.0080 O   0  0  0  0  0  0  0  0  0  0  0  0
    0.5980   15.7020   -3.9470 C   0  0  2  0  0  0  0  0  0  0  0  0
    0.6060   17.0380   -4.6890 C   0  0  0  0  0  0  0  0  0  0  0  0
   -3.6180   15.2040   -2.0510 C   0  0  0  0  0  0  0  0  0  0  0  0
   -2.8570   15.0440   -0.8760 C   0  0  0  0  0  0  0  0  0  0  0  0
   -5.0250   15.1450   -1.9580 C   0  0  0  0  0  0  0  0  0  0  0  0
   -5.6380   14.9220   -0.7250 C   0  0  0  0  0  0  0  0  0  0  0  0
   -3.4580   14.8280    0.3760 C   0  0  0  0  0  0  0  0  0  0  0  0
   -4.8510   14.7700    0.4020 C   0  0  0  0  0  0  0  0  0  0  0  0
   -6.9730   14.8160   -0.4130 N   0  0  0  0  0  0  0  0  0  0  0  0
   -7.0150   14.5970    0.8830 C   0  0  0  0  0  0  0  0  0  0  0  0
   -5.7490   14.5650    1.4150 N   0  0  0  0  0  0  0  0  0  0  0  0
   -8.2270   14.4050    1.7140 C   0  0  0  0  0  0  0  0  0  0  0  0
  2  1  1  1
  2  3  1  0
  2  4  1  0
  4  5  1  1
  3  6  1  1
  3  7  1  0
  4  8  1  0
  7  8  1  0
  8  9  1  6
  6 10  1  0
 10 11  2  0
 10 12  1  0
 12 13  2  0
 11 14  1  0
 13 15  1  0
 14 15  2  0
 13 16  1  0
 16 17  2  0
 15 18  1  0
 17 18  1  0
 17 19  1  0
M  END
>  <%Rank>  (224) 
17.022901

>  <N_hits>  (224) 
2

>  <submitter_name>  (224) 
nan

>  <original SMILES>  (224) 
nan

>  <∆G_unbound>  (224) 
0.580345

>  <∆G_bound>  (224) 
-5.921547

>  <regarded>  (224) 
2BFQ_1_A_γ,mArh-x0371_0_A_β

>  <ref_pdb>  (224) 
nan

>  <smiles>  (224) 
Cc1nc2cc(CC3OC(C)C(O)C3O)ccc2[nH]1

>  <submitter_email>  (224) 
nan

>  <disregarded>  (224) 


>  <LE>  (224) 
-0.342205

>  <submitter_institution>  (224) 
nan

>  <ref_mols>  (224) 
2BFQ_1_A,mArh-x0371_0_A

>  <N_constrained_atoms>  (224) 
18.0

>  <ref_url>  (224) 
nan

>  <method>  (224) 
nan

>  <comRMSD>  (224) 
0.514907

>  <N_unconstrained_atoms>  (224) 
1.0

>  <∆∆G>  (224) 
-6.501893

>  <runtime>  (224) 
32.67899

>  <generation_date>  (224) 
nan

$$$$
mArh-x0926_0_A_α-mArh-5cb5_M_1_M_β
     RDKit          3D

 19 19  0  0  0  0  0  0  0  0999 V2000
   -6.6470   15.0470   -0.5270 O   0  0  0  0  0  0  0  0  0  0  0  0
   -5.4140   15.1560   -0.4640 C   0  0  0  0  0  0  0  0  0  0  0  0
   -4.6600   15.0710    0.8590 C   0  0  0  0  0  0  0  0  0  0  0  0
   -4.6850   15.3500   -1.6180 N   0  0  0  0  0  0  0  0  0  0  0  0
   -3.2900   15.5520   -1.6140 N   0  0  0  0  0  0  0  0  0  0  0  0
   -3.2080   15.4030    0.7720 C   0  0  0  0  0  0  0  0  0  0  0  0
   -2.6840   15.6910   -2.9680 C   0  0  0  0  0  0  0  0  0  0  0  0
   -2.6200   15.6190   -0.4120 C   0  0  0  0  0  0  0  0  0  0  0  0
   -1.2150   16.1550   -2.9860 C   0  0  0  0  0  0  0  0  0  0  0  0
   -0.7970   17.3320   -3.9130 C   0  0  0  0  0  0  0  0  0  0  0  0
   -1.8610   18.0930   -4.5230 O   0  0  0  0  0  0  0  0  0  0  0  0
   -1.6950   18.2620   -6.1060 P   0  0  0  0  0  0  0  0  0  0  0  0
   -1.0420   19.6370   -6.5210 O   0  0  0  0  0  0  0  0  0  0  0  0
   -0.4600   17.2840   -6.2710 O   0  0  0  0  0  0  0  0  0  0  0  0
   -2.8510   17.8450   -6.9230 O   0  0  0  0  0  0  0  0  0  0  0  0
   -0.3650   19.8890   -7.9230 P   0  0  0  0  0  0  0  0  0  0  0  0
   -1.4570   20.7600   -8.6860 O   0  0  0  0  0  0  0  0  0  0  0  0
    0.0040   18.6960   -8.7330 O   0  0  0  0  0  0  0  0  0  0  0  0
    0.8130   20.9450   -7.7140 O   0  0  0  0  0  0  0  0  0  0  0  0
  1  2  2  0
  2  3  1  0
  2  4  1  0
  4  5  1  0
  3  6  1  0
  5  7  1  0
  5  8  1  0
  6  8  2  0
  7  9  1  0
  9 10  1  0
 10 11  1  0
 11 12  1  0
 12 13  1  0
 12 14  1  0
 12 15  2  0
 13 16  1  0
 16 17  1  0
 16 18  2  0
 16 19  1  0
M  END
>  <%Rank>  (225) 
17.099237

>  <N_hits>  (225) 
2

>  <submitter_name>  (225) 
nan

>  <original SMILES>  (225) 
nan

>  <∆G_unbound>  (225) 
5.003274

>  <∆G_bound>  (225) 
-12.055619

>  <regarded>  (225) 
mArh-x0926_0_A_α,mArh-5cb5_M_1_M_β

>  <ref_pdb>  (225) 
nan

>  <smiles>  (225) 
O=C1CC=CN(CCCOP(=O)(O)OP(=O)(O)O)N1

>  <submitter_email>  (225) 
nan

>  <disregarded>  (225) 


>  <LE>  (225) 
-0.897837

>  <submitter_institution>  (225) 
nan

>  <ref_mols>  (225) 
mArh-x0926_0_A,mArh-5cb5_M_1_M

>  <N_constrained_atoms>  (225) 
16.0

>  <ref_url>  (225) 
nan

>  <method>  (225) 
nan

>  <comRMSD>  (225) 
0.68481

>  <N_unconstrained_atoms>  (225) 
3.0

>  <∆∆G>  (225) 
-17.058894

>  <runtime>  (225) 
28.535601

>  <generation_date>  (225) 
nan

$$$$
mArh-5cb5_H_0_H_α-mArh-x0950_1_A_α
     RDKit          3D

 22 22  0  0  0  0  0  0  0  0999 V2000
   -1.9630   21.7670   -8.2740 C   0  0  0  0  0  0  0  0  0  0  0  0
   -3.3490   21.9990   -8.8760 C   0  0  1  0  0  0  0  0  0  0  0  0
   -4.2810   21.0510   -8.3250 O   0  0  0  0  0  0  0  0  0  0  0  0
   -3.9250   23.3760   -8.5880 C   0  0  1  0  0  0  0  0  0  0  0  0
   -4.7760   23.8950   -9.6050 O   0  0  0  0  0  0  0  0  0  0  0  0
   -5.1500   21.7080   -7.4070 C   0  0  2  0  0  0  0  0  0  0  0  0
   -4.6420   23.1450   -7.2590 C   0  0  2  0  0  0  0  0  0  0  0  0
   -5.0430   21.0700   -6.1280 O   0  0  0  0  0  0  0  0  0  0  0  0
   -5.6900   24.0890   -7.0240 O   0  0  0  0  0  0  0  0  0  0  0  0
   -3.6630   21.0030   -5.7480 C   0  0  0  0  0  0  0  0  0  0  0  0
   -2.9110   19.9220   -6.5440 C   0  0  0  0  0  0  0  0  0  0  0  0
   -1.6780   19.3550   -5.8310 C   0  0  0  0  0  0  0  0  0  0  0  0
   -1.3260   17.8970   -6.1400 C   0  0  0  0  0  0  0  0  0  0  0  0
   -0.7050   17.2230   -4.9080 C   0  0  0  0  0  0  0  0  0  0  0  0
    0.5820   16.4390   -5.2030 C   0  0  0  0  0  0  0  0  0  0  0  0
    0.4020   14.9040   -5.1750 C   0  0  0  0  0  0  0  0  0  0  0  0
    1.4220   14.2000   -4.2760 C   0  0  0  0  0  0  0  0  0  0  0  0
    1.4020   12.6640   -4.3340 C   0  0  2  0  0  0  0  0  0  0  0  0
    0.5980   12.1580   -5.3980 O   0  0  0  0  0  0  0  0  0  0  0  0
    0.9050   12.1160   -2.9930 C   0  0  0  0  0  0  0  0  0  0  0  0
    0.2330   11.0990   -2.8800 O   0  0  0  0  0  0  0  0  0  0  0  0
    1.2670   12.8700   -1.9340 O   0  0  0  0  0  0  0  0  0  0  0  0
  2  1  1  1
  2  3  1  0
  2  4  1  0
  4  5  1  6
  3  6  1  0
  4  7  1  0
  6  7  1  0
  6  8  1  1
  7  9  1  6
  8 10  1  0
 10 11  1  0
 11 12  1  0
 12 13  1  0
 13 14  1  0
 14 15  1  0
 15 16  1  0
 16 17  1  0
 17 18  1  0
 18 19  1  6
 18 20  1  0
 20 21  2  0
 20 22  1  0
M  END
>  <%Rank>  (226) 
17.175573

>  <N_hits>  (226) 
2

>  <submitter_name>  (226) 
nan

>  <original SMILES>  (226) 
nan

>  <∆G_unbound>  (226) 
0.128048

>  <∆G_bound>  (226) 
-11.913015

>  <regarded>  (226) 
mArh-5cb5_H_0_H_α,mArh-x0950_1_A_α

>  <ref_pdb>  (226) 
nan

>  <smiles>  (226) 
CC1OC(OCCCCCCCC[C@H](O)C(=O)O)C(O)C1O

>  <submitter_email>  (226) 
nan

>  <disregarded>  (226) 


>  <LE>  (226) 
-0.547321

>  <submitter_institution>  (226) 
nan

>  <ref_mols>  (226) 
mArh-5cb5_H_0_H,mArh-x0950_1_A

>  <N_constrained_atoms>  (226) 
15.0

>  <ref_url>  (226) 
nan

>  <method>  (226) 
nan

>  <comRMSD>  (226) 
0.346853

>  <N_unconstrained_atoms>  (226) 
7.0

>  <∆∆G>  (226) 
-12.041063

>  <runtime>  (226) 
50.880836

>  <generation_date>  (226) 
nan

$$$$
5CMS_0_N_δ-mArh-5cb5_I_0_I_β
     RDKit          3D

 21 22  0  0  0  0  0  0  0  0999 V2000
   -3.8670   15.1460    1.2580 N   0  0  0  0  0  0  0  0  0  0  0  0
   -2.5390   15.2600    0.6890 C   0  0  2  0  0  0  0  0  0  0  0  0
   -2.4200   14.5300   -0.6420 C   0  0  2  0  0  0  0  0  0  0  0  0
   -1.5780   14.6650    1.6020 N   0  0  0  0  0  0  0  0  0  0  0  0
   -0.9930   14.8080   -1.0240 C   0  0  2  0  0  0  0  0  0  0  0  0
   -3.1820   15.0370   -1.8200 N   0  0  0  0  0  0  0  0  0  0  0  0
   -0.1830   14.6510    1.1160 C   0  0  0  0  0  0  0  0  0  0  0  0
   -0.9910   14.5710   -2.4250 N   0  0  0  0  0  0  0  0  0  0  0  0
   -2.0650   15.5000   -2.6360 C   0  0  1  0  0  0  0  0  0  0  0  0
   -0.0530   14.1150   -0.2270 N   0  0  0  0  0  0  0  0  0  0  0  0
   -2.3000   15.8930   -4.0580 C   0  0  0  0  0  0  0  0  0  0  0  0
   -1.2460   16.9560   -4.3170 C   0  0  0  0  0  0  0  0  0  0  0  0
   -1.8690   18.1420   -4.7390 O   0  0  0  0  0  0  0  0  0  0  0  0
   -1.6760   18.3300   -6.2780 P   0  0  1  0  0  0  0  0  0  0  0  0
   -1.2220   19.7620   -6.6610 O   0  0  0  0  0  0  0  0  0  0  0  0
   -0.2740   17.5760   -6.4150 O   0  0  0  0  0  0  0  0  0  0  0  0
   -2.6630   17.6640   -7.1100 O   0  0  0  0  0  0  0  0  0  0  0  0
   -0.3450   20.0880   -7.9040 P   0  0  0  0  0  0  0  0  0  0  0  0
   -1.3160   20.9680   -8.7900 O   0  0  0  0  0  0  0  0  0  0  0  0
    0.9500   20.7670   -7.6330 O   0  0  0  0  0  0  0  0  0  0  0  0
   -0.1710   18.7580   -8.7770 O   0  0  0  0  0  0  0  0  0  0  0  0
  2  1  1  1
  2  3  1  0
  2  4  1  0
  3  5  1  0
  3  6  1  6
  4  7  1  0
  5  8  1  6
  6  9  1  0
  8  9  1  0
  5 10  1  0
  7 10  1  0
  9 11  1  6
 11 12  1  0
 12 13  1  0
 13 14  1  0
 14 15  1  0
 14 16  1  6
 14 17  2  0
 15 18  1  0
 18 19  1  0
 18 20  2  0
 18 21  1  0
M  END
>  <%Rank>  (227) 
17.251908

>  <N_hits>  (227) 
2

>  <submitter_name>  (227) 
nan

>  <original SMILES>  (227) 
nan

>  <∆G_unbound>  (227) 
1.894859

>  <∆G_bound>  (227) 
-9.753671

>  <regarded>  (227) 
5CMS_0_N_δ,mArh-5cb5_I_0_I_β

>  <ref_pdb>  (227) 
nan

>  <smiles>  (227) 
NC1NCNC2NC(CCOP(=O)(O)OP(=O)(O)O)NC12

>  <submitter_email>  (227) 
nan

>  <disregarded>  (227) 


>  <LE>  (227) 
-0.554692

>  <submitter_institution>  (227) 
nan

>  <ref_mols>  (227) 
5CMS_0_N,mArh-5cb5_I_0_I

>  <N_constrained_atoms>  (227) 
19.0

>  <ref_url>  (227) 
nan

>  <method>  (227) 
nan

>  <comRMSD>  (227) 
0.622054

>  <N_unconstrained_atoms>  (227) 
2.0

>  <∆∆G>  (227) 
-11.64853

>  <runtime>  (227) 
38.314312

>  <generation_date>  (227) 
nan

$$$$
mArh-x0681_0_A_α-mArh-5cb5_C_0_C_γ
     RDKit          3D

 20 22  0  0  0  0  0  0  0  0999 V2000
   -4.8890   15.4810   -2.7150 N   0  0  0  0  0  0  0  0  0  0  0  0
   -3.6880   15.0970   -2.2040 C   0  0  0  0  0  0  0  0  0  0  0  0
   -2.6320   15.0690   -2.9910 N   0  0  0  0  0  0  0  0  0  0  0  0
   -3.9470   14.7660   -0.7110 C   0  0  1  0  0  0  0  0  0  0  0  0
   -4.7800   13.5360   -0.6090 C   0  0  0  0  0  0  0  0  0  0  0  0
   -3.0520   14.9780    0.5150 C   0  0  0  0  0  0  0  0  0  0  0  0
   -1.2170   14.7040   -2.8080 C   0  0  2  0  0  0  0  0  0  0  0  0
   -5.4960   13.4290    0.5030 N   0  0  0  0  0  0  0  0  0  0  0  0
   -3.8950   14.7250    1.7940 C   0  0  0  0  0  0  0  0  0  0  0  0
   -4.9720   12.5120   -1.4140 N   0  0  0  0  0  0  0  0  0  0  0  0
   -0.2600   15.7450   -3.1410 O   0  0  0  0  0  0  0  0  0  0  0  0
   -1.0070   13.6270   -3.9110 C   0  0  2  0  0  0  0  0  0  0  0  0
   -0.3130   12.4810   -3.4110 O   0  0  0  0  0  0  0  0  0  0  0  0
   -5.3860   14.4700    1.4700 C   0  0  0  0  0  0  0  0  0  0  0  0
   -6.2190   12.2820    0.4740 C   0  0  0  0  0  0  0  0  0  0  0  0
   -5.8770   11.7200   -0.7380 C   0  0  0  0  0  0  0  0  0  0  0  0
   -0.2900   15.7770   -4.5760 C   0  0  2  0  0  0  0  0  0  0  0  0
   -0.1490   14.3100   -4.9730 C   0  0  1  0  0  0  0  0  0  0  0  0
    0.7230   16.7600   -5.1470 C   0  0  0  0  0  0  0  0  0  0  0  0
    1.1900   13.8200   -4.8750 O   0  0  0  0  0  0  0  0  0  0  0  0
  1  2  1  0
  2  3  2  3
  4  2  1  6
  4  5  1  0
  4  6  1  0
  7  3  1  6
  5  8  1  0
  6  9  1  0
  5 10  2  0
  7 11  1  0
  7 12  1  0
 12 13  1  1
  8 14  1  0
  9 14  1  0
  8 15  1  0
 10 16  1  0
 15 16  2  0
 11 17  1  0
 12 18  1  0
 17 18  1  0
 17 19  1  6
 18 20  1  1
M  END
>  <%Rank>  (228) 
17.328244

>  <N_hits>  (228) 
2

>  <submitter_name>  (228) 
nan

>  <original SMILES>  (228) 
nan

>  <∆G_unbound>  (228) 
0.554107

>  <∆G_bound>  (228) 
-5.772078

>  <regarded>  (228) 
mArh-x0681_0_A_α,mArh-5cb5_C_0_C_γ

>  <ref_pdb>  (228) 
nan

>  <smiles>  (228) 
CC1OC(N=C(N)C2CCCn3ccnc32)C(O)C1O

>  <submitter_email>  (228) 
nan

>  <disregarded>  (228) 


>  <LE>  (228) 
-0.316309

>  <submitter_institution>  (228) 
nan

>  <ref_mols>  (228) 
mArh-x0681_0_A,mArh-5cb5_C_0_C

>  <N_constrained_atoms>  (228) 
20.0

>  <ref_url>  (228) 
nan

>  <method>  (228) 
nan

>  <comRMSD>  (228) 
0.575697

>  <N_unconstrained_atoms>  (228) 
0.0

>  <∆∆G>  (228) 
-6.326184

>  <runtime>  (228) 
31.764573

>  <generation_date>  (228) 
nan

$$$$
mArh-EU0087_0_A_α-mArh-x0689_0_A_α
     RDKit          3D

  9  9  0  0  0  0  0  0  0  0999 V2000
   -3.7580   14.5390    1.4690 N   0  0  0  0  0  0  0  0  0  0  0  0
   -4.9730   14.5450    0.8850 C   0  0  0  0  0  0  0  0  0  0  0  0
   -6.2410   14.3420    1.6590 C   0  0  0  0  0  0  0  0  0  0  0  0
   -2.5010   14.5780    0.9600 C   0  0  0  0  0  0  0  0  0  0  0  0
   -5.0270   14.7250   -0.3420 O   0  0  0  0  0  0  0  0  0  0  0  0
   -1.4810   14.6200    1.7670 N   0  0  0  0  0  0  0  0  0  0  0  0
   -2.1250   14.5750   -0.7000 S   0  0  0  0  0  0  0  0  0  0  0  0
   -0.4560   14.6620   -0.3200 C   0  0  0  0  0  0  0  0  0  0  0  0
   -0.3170   14.6790    1.0470 C   0  0  0  0  0  0  0  0  0  0  0  0
  1  2  1  0
  2  3  1  0
  1  4  1  0
  2  5  2  0
  4  6  2  0
  4  7  1  0
  7  8  1  0
  6  9  1  0
  8  9  2  0
M  END
>  <%Rank>  (229) 
17.40458

>  <N_hits>  (229) 
2

>  <submitter_name>  (229) 
nan

>  <original SMILES>  (229) 
nan

>  <∆G_unbound>  (229) 
0.011185

>  <∆G_bound>  (229) 
-4.375389

>  <regarded>  (229) 
mArh-EU0087_0_A_α,mArh-x0689_0_A_α

>  <ref_pdb>  (229) 
nan

>  <smiles>  (229) 
CC(=O)Nc1nccs1

>  <submitter_email>  (229) 
nan

>  <disregarded>  (229) 


>  <LE>  (229) 
-0.487397

>  <submitter_institution>  (229) 
nan

>  <ref_mols>  (229) 
mArh-EU0087_0_A,mArh-x0689_0_A

>  <N_constrained_atoms>  (229) 
9.0

>  <ref_url>  (229) 
nan

>  <method>  (229) 
nan

>  <comRMSD>  (229) 
0.376945

>  <N_unconstrained_atoms>  (229) 
0.0

>  <∆∆G>  (229) 
-4.386574

>  <runtime>  (229) 
24.487801

>  <generation_date>  (229) 
nan

$$$$
mArh-5cms_B_1_B_β-5CB3_0_A_δ
     RDKit          3D

 21 22  0  0  0  0  0  0  0  0999 V2000
   -1.4690   20.5610   -8.7670 O   0  0  0  0  0  0  0  0  0  0  0  0
   -0.4310   19.8340   -7.8100 P   0  0  0  0  0  0  0  0  0  0  0  0
   -1.2330   19.5080   -6.4740 O   0  0  0  0  0  0  0  0  0  0  0  0
    0.7920   20.6600   -7.6610 O   0  0  0  0  0  0  0  0  0  0  0  0
   -0.1940   18.4780   -8.6240 O   0  0  0  0  0  0  0  0  0  0  0  0
   -1.6720   18.0390   -6.0920 P   0  0  2  0  0  0  0  0  0  0  0  0
   -0.2910   17.2570   -6.1990 O   0  0  0  0  0  0  0  0  0  0  0  0
   -2.7270   17.4690   -6.9580 O   0  0  0  0  0  0  0  0  0  0  0  0
   -1.9380   17.9310   -4.5300 O   0  0  0  0  0  0  0  0  0  0  0  0
   -1.5970   16.6770   -3.9450 C   0  0  0  0  0  0  0  0  0  0  0  0
   -2.7960   15.7320   -3.8820 C   0  0  0  0  0  0  0  0  0  0  0  0
   -2.9480   14.8320   -2.6490 C   0  0  1  0  0  0  0  0  0  0  0  0
   -1.6470   14.3380   -2.1750 N   0  0  0  0  0  0  0  0  0  0  0  0
   -3.6570   15.4190   -1.4940 N   0  0  0  0  0  0  0  0  0  0  0  0
   -1.5300   14.9340   -0.8780 C   0  0  1  0  0  0  0  0  0  0  0  0
   -2.9430   14.8110   -0.3720 C   0  0  1  0  0  0  0  0  0  0  0  0
   -0.5900   14.2090   -0.0840 N   0  0  0  0  0  0  0  0  0  0  0  0
   -2.9300   15.5090    0.9710 C   0  0  1  0  0  0  0  0  0  0  0  0
   -4.2040   15.4690    1.6770 N   0  0  0  0  0  0  0  0  0  0  0  0
   -0.5900   14.8280    1.2150 C   0  0  0  0  0  0  0  0  0  0  0  0
   -1.9370   14.8920    1.7980 N   0  0  0  0  0  0  0  0  0  0  0  0
  1  2  1  0
  2  3  1  0
  2  4  2  0
  2  5  1  0
  3  6  1  0
  6  7  1  1
  6  8  2  0
  6  9  1  0
  9 10  1  0
 10 11  1  0
 12 11  1  6
 12 13  1  0
 12 14  1  0
 15 13  1  6
 16 14  1  6
 15 16  1  0
 15 17  1  0
 16 18  1  0
 18 19  1  1
 17 20  1  0
 18 21  1  0
 20 21  1  0
M  END
>  <%Rank>  (230) 
17.480916

>  <N_hits>  (230) 
2

>  <submitter_name>  (230) 
nan

>  <original SMILES>  (230) 
nan

>  <∆G_unbound>  (230) 
4.831508

>  <∆G_bound>  (230) 
-9.17256

>  <regarded>  (230) 
mArh-5cms_B_1_B_β,5CB3_0_A_δ

>  <ref_pdb>  (230) 
nan

>  <smiles>  (230) 
NC1NCNC2NC(CCOP(=O)(O)OP(=O)(O)O)NC12

>  <submitter_email>  (230) 
nan

>  <disregarded>  (230) 


>  <LE>  (230) 
-0.66686

>  <submitter_institution>  (230) 
nan

>  <ref_mols>  (230) 
mArh-5cms_B_1_B,5CB3_0_A

>  <N_constrained_atoms>  (230) 
19.0

>  <ref_url>  (230) 
nan

>  <method>  (230) 
nan

>  <comRMSD>  (230) 
0.680003

>  <N_unconstrained_atoms>  (230) 
2.0

>  <∆∆G>  (230) 
-14.004068

>  <runtime>  (230) 
33.451261

>  <generation_date>  (230) 
nan

$$$$
mArh-5cb5_O_0_O_β-2FAV_0_B_γ
     RDKit          3D

 18 18  0  0  0  0  0  0  0  0999 V2000
   -1.5890   20.6040   -8.5660 O   0  0  0  0  0  0  0  0  0  0  0  0
   -0.2580   19.9830   -7.9640 P   0  0  0  0  0  0  0  0  0  0  0  0
   -0.5550   19.4340   -6.5430 O   0  0  0  0  0  0  0  0  0  0  0  0
    0.8340   20.9890   -7.9800 O   0  0  0  0  0  0  0  0  0  0  0  0
   -0.0100   18.7160   -8.8900 O   0  0  0  0  0  0  0  0  0  0  0  0
   -1.7050   18.4860   -6.0830 P   0  0  2  0  0  0  0  0  0  0  0  0
   -0.9630   17.4930   -5.1150 O   0  0  0  0  0  0  0  0  0  0  0  0
   -2.6010   17.8670   -7.0780 O   0  0  0  0  0  0  0  0  0  0  0  0
   -2.4270   19.4290   -5.0250 O   0  0  0  0  0  0  0  0  0  0  0  0
    0.3280   17.8950   -4.7150 C   0  0  0  0  0  0  0  0  0  0  0  0
    1.1710   16.6570   -4.6550 C   0  0  0  0  0  0  0  0  0  0  0  0
    0.3400   15.4540   -4.3560 C   0  0  2  0  0  0  0  0  0  0  0  0
    0.3340   15.1420   -2.9520 O   0  0  0  0  0  0  0  0  0  0  0  0
    0.7410   14.1580   -5.0430 C   0  0  1  0  0  0  0  0  0  0  0  0
    2.0390   13.6800   -4.6760 O   0  0  0  0  0  0  0  0  0  0  0  0
   -0.1870   13.7940   -2.9240 C   0  0  0  0  0  0  0  0  0  0  0  0
   -0.3390   13.3390   -4.3850 C   0  0  2  0  0  0  0  0  0  0  0  0
   -0.0900   11.9460   -4.5220 O   0  0  0  0  0  0  0  0  0  0  0  0
  1  2  1  0
  2  3  1  0
  2  4  2  0
  2  5  1  0
  3  6  1  0
  6  7  1  0
  6  8  2  0
  6  9  1  1
  7 10  1  0
 10 11  1  0
 12 11  1  1
 12 13  1  0
 12 14  1  0
 14 15  1  1
 13 16  1  0
 14 17  1  0
 16 17  1  0
 17 18  1  1
M  END
>  <%Rank>  (231) 
17.557252

>  <N_hits>  (231) 
2

>  <submitter_name>  (231) 
nan

>  <original SMILES>  (231) 
nan

>  <∆G_unbound>  (231) 
2.208268

>  <∆G_bound>  (231) 
-10.520106

>  <regarded>  (231) 
mArh-5cb5_O_0_O_β,2FAV_0_B_γ

>  <ref_pdb>  (231) 
nan

>  <smiles>  (231) 
O=P(O)(O)OP(=O)(O)OCCC1OCC(O)C1O

>  <submitter_email>  (231) 
nan

>  <disregarded>  (231) 


>  <LE>  (231) 
-0.707132

>  <submitter_institution>  (231) 
nan

>  <ref_mols>  (231) 
mArh-5cb5_O_0_O,2FAV_0_B

>  <N_constrained_atoms>  (231) 
17.0

>  <ref_url>  (231) 
nan

>  <method>  (231) 
nan

>  <comRMSD>  (231) 
0.682235

>  <N_unconstrained_atoms>  (231) 
1.0

>  <∆∆G>  (231) 
-12.728374

>  <runtime>  (231) 
24.199693

>  <generation_date>  (231) 
nan

$$$$
6WOJ_0_A_α-5CB5_0_K_γ
     RDKit          3D

 22 23  0  0  0  0  0  0  0  0999 V2000
   -2.2970   21.7790   -8.8130 C   0  0  0  0  0  0  0  0  0  0  0  0
   -2.4880   22.7380   -7.6930 C   0  0  2  0  0  0  0  0  0  0  0  0
   -2.8260   21.8200   -6.6770 O   0  0  0  0  0  0  0  0  0  0  0  0
   -3.6060   23.7820   -7.7960 C   0  0  1  0  0  0  0  0  0  0  0  0
   -4.1460   23.9280   -9.1200 O   0  0  0  0  0  0  0  0  0  0  0  0
   -3.9910   22.2430   -6.0270 C   0  0  1  0  0  0  0  0  0  0  0  0
   -4.7090   23.2720   -6.8970 C   0  0  1  0  0  0  0  0  0  0  0  0
   -4.7970   21.1230   -5.8680 O   0  0  0  0  0  0  0  0  0  0  0  0
   -5.3030   24.3050   -6.0970 O   0  0  0  0  0  0  0  0  0  0  0  0
   -4.4280   20.2300   -6.9040 C   0  0  0  0  0  0  0  0  0  0  0  0
   -2.9950   19.6310   -6.8830 C   0  0  0  0  0  0  0  0  0  0  0  0
   -2.1960   19.6750   -5.5830 C   0  0  0  0  0  0  0  0  0  0  0  0
   -1.6220   18.2670   -5.3060 C   0  0  0  0  0  0  0  0  0  0  0  0
   -0.1200   18.2230   -4.9900 C   0  0  0  0  0  0  0  0  0  0  0  0
    0.5440   16.9360   -5.4750 C   0  0  0  0  0  0  0  0  0  0  0  0
    0.5500   15.7670   -4.4780 C   0  0  1  0  0  0  0  0  0  0  0  0
   -0.5450   15.9650   -3.5690 O   0  0  0  0  0  0  0  0  0  0  0  0
    0.3260   14.3630   -5.0770 C   0  0  1  0  0  0  0  0  0  0  0  0
    1.4380   13.4860   -5.0410 O   0  0  0  0  0  0  0  0  0  0  0  0
   -0.9440   14.6840   -3.0990 C   0  0  0  0  0  0  0  0  0  0  0  0
   -0.8440   13.7670   -4.2980 C   0  0  2  0  0  0  0  0  0  0  0  0
   -0.5740   12.4170   -3.9570 O   0  0  0  0  0  0  0  0  0  0  0  0
  2  1  1  6
  2  3  1  0
  2  4  1  0
  4  5  1  6
  3  6  1  0
  4  7  1  0
  6  7  1  0
  6  8  1  6
  7  9  1  1
  8 10  1  0
 10 11  1  0
 11 12  1  0
 12 13  1  0
 13 14  1  0
 14 15  1  0
 16 15  1  6
 16 17  1  0
 16 18  1  0
 18 19  1  1
 17 20  1  0
 18 21  1  0
 20 21  1  0
 21 22  1  1
M  END
>  <%Rank>  (232) 
17.633588

>  <N_hits>  (232) 
2

>  <submitter_name>  (232) 
nan

>  <original SMILES>  (232) 
nan

>  <∆G_unbound>  (232) 
0.187336

>  <∆G_bound>  (232) 
-9.673429

>  <regarded>  (232) 
6WOJ_0_A_α,5CB5_0_K_γ

>  <ref_pdb>  (232) 
nan

>  <smiles>  (232) 
CC1OC(OCCCCCCC2OCC(O)C2O)C(O)C1O

>  <submitter_email>  (232) 
nan

>  <disregarded>  (232) 


>  <LE>  (232) 
-0.448217

>  <submitter_institution>  (232) 
nan

>  <ref_mols>  (232) 
6WOJ_0_A,5CB5_0_K

>  <N_constrained_atoms>  (232) 
17.0

>  <ref_url>  (232) 
nan

>  <method>  (232) 
nan

>  <comRMSD>  (232) 
0.435274

>  <N_unconstrained_atoms>  (232) 
5.0

>  <∆∆G>  (232) 
-9.860765

>  <runtime>  (232) 
33.402335

>  <generation_date>  (232) 
nan

$$$$
mArh-4iqy_A_0_A_β-5CMS_0_A_δ
     RDKit          3D

 21 22  0  0  0  0  0  0  0  0999 V2000
   -1.5300   20.6380   -8.7200 O   0  0  0  0  0  0  0  0  0  0  0  0
   -0.4140   19.8940   -7.8540 P   0  0  0  0  0  0  0  0  0  0  0  0
   -1.2240   19.4250   -6.5600 O   0  0  0  0  0  0  0  0  0  0  0  0
    0.8020   20.7180   -7.6120 O   0  0  0  0  0  0  0  0  0  0  0  0
   -0.1390   18.6090   -8.7610 O   0  0  0  0  0  0  0  0  0  0  0  0
   -1.4470   17.9530   -6.0840 P   0  0  0  0  0  0  0  0  0  0  0  0
   -0.1460   17.1150   -6.2950 O   0  0  0  0  0  0  0  0  0  0  0  0
   -1.9460   17.8020   -4.5330 N   0  0  0  0  0  0  0  0  0  0  0  0
   -2.6090   17.3060   -6.9380 O   0  0  0  0  0  0  0  0  0  0  0  0
   -1.7180   16.4880   -3.9470 C   0  0  0  0  0  0  0  0  0  0  0  0
   -2.9980   15.6320   -3.7850 C   0  0  0  0  0  0  0  0  0  0  0  0
   -2.9920   14.6480   -2.6190 C   0  0  1  0  0  0  0  0  0  0  0  0
   -1.5950   14.3770   -2.2220 N   0  0  0  0  0  0  0  0  0  0  0  0
   -3.7100   15.1050   -1.3990 N   0  0  0  0  0  0  0  0  0  0  0  0
   -1.5210   14.8520   -0.8700 C   0  0  1  0  0  0  0  0  0  0  0  0
   -2.8930   14.4310   -0.3980 C   0  0  1  0  0  0  0  0  0  0  0  0
   -0.4410   14.2340   -0.1560 N   0  0  0  0  0  0  0  0  0  0  0  0
   -2.9340   14.6990    1.1140 C   0  0  2  0  0  0  0  0  0  0  0  0
   -4.0090   15.5490    1.5920 N   0  0  0  0  0  0  0  0  0  0  0  0
   -0.5200   14.5590    1.2510 C   0  0  0  0  0  0  0  0  0  0  0  0
   -1.7110   15.3510    1.5300 N   0  0  0  0  0  0  0  0  0  0  0  0
  1  2  1  0
  2  3  1  0
  2  4  2  0
  2  5  1  0
  3  6  1  0
  6  7  1  0
  6  8  2  3
  6  9  1  0
  8 10  1  0
 10 11  1  0
 12 11  1  6
 12 13  1  0
 12 14  1  0
 15 13  1  6
 16 14  1  6
 15 16  1  0
 15 17  1  0
 16 18  1  0
 18 19  1  6
 17 20  1  0
 18 21  1  0
 20 21  1  0
M  END
>  <%Rank>  (233) 
17.709924

>  <N_hits>  (233) 
2

>  <submitter_name>  (233) 
nan

>  <original SMILES>  (233) 
nan

>  <∆G_unbound>  (233) 
3.927511

>  <∆G_bound>  (233) 
-8.580095

>  <regarded>  (233) 
mArh-4iqy_A_0_A_β,5CMS_0_A_δ

>  <ref_pdb>  (233) 
nan

>  <smiles>  (233) 
NC1NCNC2NC(CCN=P(O)(O)OP(=O)(O)O)NC12

>  <submitter_email>  (233) 
nan

>  <disregarded>  (233) 


>  <LE>  (233) 
-0.5956

>  <submitter_institution>  (233) 
nan

>  <ref_mols>  (233) 
mArh-4iqy_A_0_A,5CMS_0_A

>  <N_constrained_atoms>  (233) 
19.0

>  <ref_url>  (233) 
nan

>  <method>  (233) 
nan

>  <comRMSD>  (233) 
0.64522

>  <N_unconstrained_atoms>  (233) 
2.0

>  <∆∆G>  (233) 
-12.507606

>  <runtime>  (233) 
30.005616

>  <generation_date>  (233) 
nan

$$$$
5CMS_0_J_δ-mArh-x0282_0_A_α
     RDKit          3D

 17 19  0  0  0  0  0  0  0  0999 V2000
   -3.0350   14.0930    2.4960 N   0  0  0  0  0  0  0  0  0  0  0  0
   -3.2220   14.6670    0.6950 S   0  0  0  0  0  0  0  0  0  0  0  0
   -1.8920   14.6410   -0.4710 C   0  0  1  0  0  0  0  0  0  0  0  0
   -1.5850   15.5460    0.7720 N   0  0  0  0  0  0  0  0  0  0  0  0
   -4.2560   13.3400    0.2710 C   0  0  0  0  0  0  0  0  0  0  0  0
   -4.6980   15.4250   -0.1200 C   0  0  0  0  0  0  0  0  0  0  0  0
   -1.1920   13.5020   -0.7410 C   0  0  1  0  0  0  0  0  0  0  0  0
   -2.5520   15.1090   -1.7030 N   0  0  0  0  0  0  0  0  0  0  0  0
   -0.4440   14.8060    0.8840 C   0  0  0  0  0  0  0  0  0  0  0  0
   -5.4700   13.2940    1.1200 C   0  0  0  0  0  0  0  0  0  0  0  0
   -5.9870   15.1390    0.3410 C   0  0  0  0  0  0  0  0  0  0  0  0
   -1.3040   13.4220   -2.1540 N   0  0  0  0  0  0  0  0  0  0  0  0
   -2.6390   13.9150   -2.4340 C   0  0  0  0  0  0  0  0  0  0  0  0
    0.0910   14.0430   -0.2940 N   0  0  0  0  0  0  0  0  0  0  0  0
   -6.5230   13.7370    0.2050 C   0  0  0  0  0  0  0  0  0  0  0  0
   -7.8580   13.6410    0.8570 C   0  0  0  0  0  0  0  0  0  0  0  0
   -8.6880   14.5680    0.2220 O   0  0  0  0  0  0  0  0  0  0  0  0
  1  2  1  0
  2  3  1  0
  2  4  1  0
  2  5  1  0
  2  6  1  0
  3  7  1  0
  3  8  1  6
  4  9  1  0
  5 10  1  0
  6 11  1  0
  7 12  1  6
  8 13  1  0
 12 13  1  0
  7 14  1  0
  9 14  1  0
 10 15  1  0
 11 15  1  0
 15 16  1  0
 16 17  1  0
M  END
>  <%Rank>  (234) 
17.78626

>  <N_hits>  (234) 
2

>  <submitter_name>  (234) 
nan

>  <original SMILES>  (234) 
nan

>  <∆G_unbound>  (234) 
0.825995

>  <∆G_bound>  (234) 
0.530473

>  <regarded>  (234) 
5CMS_0_J_δ,mArh-x0282_0_A_α

>  <ref_pdb>  (234) 
nan

>  <smiles>  (234) 
N[SH]12(CCC(CO)CC1)NCNC1NCNC12

>  <submitter_email>  (234) 
nan

>  <disregarded>  (234) 


>  <LE>  (234) 
-0.017384

>  <submitter_institution>  (234) 
nan

>  <ref_mols>  (234) 
5CMS_0_J,mArh-x0282_0_A

>  <N_constrained_atoms>  (234) 
17.0

>  <ref_url>  (234) 
nan

>  <method>  (234) 
nan

>  <comRMSD>  (234) 
0.367259

>  <N_unconstrained_atoms>  (234) 
0.0

>  <∆∆G>  (234) 
-0.295522

>  <runtime>  (234) 
32.230672

>  <generation_date>  (234) 
nan

$$$$
mArh-5cb5_K_0_K_β-5CMS_0_K_γ
     RDKit          3D

 16 16  0  0  0  0  0  0  0  0999 V2000
   -1.6840   20.3540   -8.1210 O   0  0  0  0  0  0  0  0  0  0  0  0
   -0.2020   19.9010   -7.7710 P   0  0  0  0  0  0  0  0  0  0  0  0
   -0.2750   19.2020   -6.3670 O   0  0  0  0  0  0  0  0  0  0  0  0
    0.7880   20.9950   -7.8430 O   0  0  0  0  0  0  0  0  0  0  0  0
    0.0420   18.7220   -8.8280 O   0  0  0  0  0  0  0  0  0  0  0  0
   -1.2280   18.0000   -6.0340 P   0  0  2  0  0  0  0  0  0  0  0  0
   -0.2090   16.7690   -5.7720 O   0  0  0  0  0  0  0  0  0  0  0  0
   -2.3900   17.8110   -6.9490 O   0  0  0  0  0  0  0  0  0  0  0  0
   -1.6800   18.4080   -4.5620 O   0  0  0  0  0  0  0  0  0  0  0  0
   -0.5910   15.7190   -4.8930 C   0  0  2  0  0  0  0  0  0  0  0  0
   -0.0680   15.8100   -3.5600 O   0  0  0  0  0  0  0  0  0  0  0  0
   -0.2280   14.2700   -5.2690 C   0  0  1  0  0  0  0  0  0  0  0  0
    1.1610   13.8880   -5.1460 O   0  0  0  0  0  0  0  0  0  0  0  0
   -0.4240   14.5450   -2.9610 C   0  0  0  0  0  0  0  0  0  0  0  0
   -0.9440   13.6550   -4.0990 C   0  0  2  0  0  0  0  0  0  0  0  0
   -0.6230   12.2840   -3.9680 O   0  0  0  0  0  0  0  0  0  0  0  0
  1  2  1  0
  2  3  1  0
  2  4  2  0
  2  5  1  0
  3  6  1  0
  6  7  1  0
  6  8  2  0
  6  9  1  1
 10  7  1  6
 10 11  1  0
 10 12  1  0
 12 13  1  1
 11 14  1  0
 12 15  1  0
 14 15  1  0
 15 16  1  1
M  END
>  <%Rank>  (235) 
17.862595

>  <N_hits>  (235) 
2

>  <submitter_name>  (235) 
nan

>  <original SMILES>  (235) 
nan

>  <∆G_unbound>  (235) 
1.157846

>  <∆G_bound>  (235) 
-8.886104

>  <regarded>  (235) 
mArh-5cb5_K_0_K_β,5CMS_0_K_γ

>  <ref_pdb>  (235) 
nan

>  <smiles>  (235) 
O=P(O)(O)OP(=O)(O)OC1OCC(O)C1O

>  <submitter_email>  (235) 
nan

>  <disregarded>  (235) 


>  <LE>  (235) 
-0.627747

>  <submitter_institution>  (235) 
nan

>  <ref_mols>  (235) 
mArh-5cb5_K_0_K,5CMS_0_K

>  <N_constrained_atoms>  (235) 
16.0

>  <ref_url>  (235) 
nan

>  <method>  (235) 
nan

>  <comRMSD>  (235) 
0.653538

>  <N_unconstrained_atoms>  (235) 
0.0

>  <∆∆G>  (235) 
-10.04395

>  <runtime>  (235) 
30.441514

>  <generation_date>  (235) 
nan

$$$$
5CMS_0_R_γ-6MEA_0_B_β
     RDKit          3D

 16 16  0  0  0  0  0  0  0  0999 V2000
   -0.4690   12.4710   -3.8610 O   0  0  0  0  0  0  0  0  0  0  0  0
    0.3560   13.5810   -3.9280 C   0  0  2  0  0  0  0  0  0  0  0  0
    0.0980   14.5930   -2.8260 C   0  0  0  0  0  0  0  0  0  0  0  0
    0.1570   14.3830   -5.1880 C   0  0  2  0  0  0  0  0  0  0  0  0
    1.3850   14.3100   -5.8120 O   0  0  0  0  0  0  0  0  0  0  0  0
    0.4670   15.7960   -3.4310 O   0  0  0  0  0  0  0  0  0  0  0  0
   -0.1940   15.7340   -4.6420 C   0  0  1  0  0  0  0  0  0  0  0  0
    0.0320   17.0180   -5.4590 C   0  0  0  0  0  0  0  0  0  0  0  0
   -1.4150   18.0110   -5.6260 P   0  0  0  0  0  0  0  0  0  0  0  0
   -0.8650   19.3320   -6.1750 O   0  0  0  0  0  0  0  0  0  0  0  0
   -2.4290   17.9690   -6.9890 O   0  0  0  0  0  0  0  0  0  0  0  0
   -1.9140   18.8880   -4.4030 O   0  0  0  0  0  0  0  0  0  0  0  0
   -0.1310   19.6730   -7.5460 P   0  0  0  0  0  0  0  0  0  0  0  0
   -1.3770   20.3530   -8.1310 O   0  0  0  0  0  0  0  0  0  0  0  0
    0.6840   21.1300   -7.7240 O   0  0  0  0  0  0  0  0  0  0  0  0
   -0.0220   18.5420   -8.7320 O   0  0  0  0  0  0  0  0  0  0  0  0
  2  1  1  6
  2  3  1  0
  2  4  1  0
  4  5  1  1
  3  6  1  0
  4  7  1  0
  6  7  1  0
  7  8  1  6
  8  9  1  0
  9 10  1  0
  9 11  1  0
  9 12  1  0
 10 13  1  0
 13 14  1  0
 13 15  1  0
 13 16  1  0
M  CHG  2  11  -1  15  -1
M  END
>  <%Rank>  (236) 
17.938931

>  <N_hits>  (236) 
2

>  <submitter_name>  (236) 
nan

>  <original SMILES>  (236) 
nan

>  <∆G_unbound>  (236) 
0.683631

>  <∆G_bound>  (236) 
-7.573614

>  <regarded>  (236) 
5CMS_0_R_γ,6MEA_0_B_β

>  <ref_pdb>  (236) 
nan

>  <smiles>  (236) 
[O-][PH](O)(O)O[PH]([O-])(O)CC1OCC(O)C1O

>  <submitter_email>  (236) 
nan

>  <disregarded>  (236) 


>  <LE>  (236) 
-0.516078

>  <submitter_institution>  (236) 
nan

>  <ref_mols>  (236) 
5CMS_0_R,6MEA_0_B

>  <N_constrained_atoms>  (236) 
16.0

>  <ref_url>  (236) 
nan

>  <method>  (236) 
nan

>  <comRMSD>  (236) 
0.597877

>  <N_unconstrained_atoms>  (236) 
0.0

>  <∆∆G>  (236) 
-8.257245

>  <runtime>  (236) 
27.460398

>  <generation_date>  (236) 
nan

$$$$
mArh-3q6z_0_A_γ-mArh-mac-194_0_A_α
     RDKit          3D

 21 23  0  0  0  0  0  0  0  0999 V2000
   -0.8680   12.3830   -4.6380 O   0  0  0  0  0  0  0  0  0  0  0  0
   -0.9130   13.7880   -4.8410 C   0  0  1  0  0  0  0  0  0  0  0  0
   -1.6380   14.5480   -3.7200 C   0  0  1  0  0  0  0  0  0  0  0  0
    0.4630   14.4350   -4.8790 C   0  0  2  0  0  0  0  0  0  0  0  0
    1.3660   13.7840   -3.9880 O   0  0  0  0  0  0  0  0  0  0  0  0
   -2.2090   13.5980   -2.6870 C   0  0  0  0  0  0  0  0  0  0  0  0
   -0.6870   15.5070   -3.2170 O   0  0  0  0  0  0  0  0  0  0  0  0
    0.0000   15.8090   -4.4310 C   0  0  1  0  0  0  0  0  0  0  0  0
    1.0560   16.8540   -4.2780 C   0  0  0  0  0  0  0  0  0  0  0  0
   -3.1190   14.0070   -1.5670 C   0  0  0  0  0  0  0  0  0  0  0  0
   -2.5330   14.2260   -0.3220 C   0  0  0  0  0  0  0  0  0  0  0  0
   -4.5190   14.1420   -1.7170 C   0  0  0  0  0  0  0  0  0  0  0  0
   -5.2940   14.4600   -0.5890 C   0  0  0  0  0  0  0  0  0  0  0  0
   -3.3110   14.5440    0.7760 C   0  0  0  0  0  0  0  0  0  0  0  0
   -6.7660   14.5950   -0.6050 C   0  0  0  0  0  0  0  0  0  0  0  0
   -4.6870   14.6470    0.6490 C   0  0  0  0  0  0  0  0  0  0  0  0
   -7.4160   14.8400   -1.6140 O   0  0  0  0  0  0  0  0  0  0  0  0
   -7.3530   14.4130    0.6300 N   0  0  0  0  0  0  0  0  0  0  0  0
   -5.4100   14.9110    1.8030 N   0  0  0  0  0  0  0  0  0  0  0  0
   -6.6860   14.7470    1.7740 C   0  0  0  0  0  0  0  0  0  0  0  0
   -7.3750   14.9100    2.9250 N   0  0  0  0  0  0  0  0  0  0  0  0
  2  1  1  1
  2  3  1  0
  2  4  1  0
  4  5  1  1
  3  6  1  1
  3  7  1  0
  4  8  1  0
  7  8  1  0
  8  9  1  1
  6 10  1  0
 10 11  2  0
 10 12  1  0
 12 13  2  0
 11 14  1  0
 13 15  1  0
 13 16  1  0
 14 16  2  0
 15 17  2  0
 15 18  1  0
 16 19  1  0
 18 20  1  0
 19 20  2  0
 20 21  1  0
M  END
>  <%Rank>  (237) 
18.015267

>  <N_hits>  (237) 
2

>  <submitter_name>  (237) 
nan

>  <original SMILES>  (237) 
nan

>  <∆G_unbound>  (237) 
0.311471

>  <∆G_bound>  (237) 
-4.785542

>  <regarded>  (237) 
mArh-3q6z_0_A_γ,mArh-mac-194_0_A_α

>  <ref_pdb>  (237) 
nan

>  <smiles>  (237) 
CC1OC(Cc2ccc3nc(N)[nH]c(=O)c3c2)C(O)C1O

>  <submitter_email>  (237) 
nan

>  <disregarded>  (237) 


>  <LE>  (237) 
-0.242715

>  <submitter_institution>  (237) 
nan

>  <ref_mols>  (237) 
mArh-3q6z_0_A,mArh-mac-194_0_A

>  <N_constrained_atoms>  (237) 
20.0

>  <ref_url>  (237) 
nan

>  <method>  (237) 
nan

>  <comRMSD>  (237) 
0.519578

>  <N_unconstrained_atoms>  (237) 
1.0

>  <∆∆G>  (237) 
-5.097013

>  <runtime>  (237) 
33.78599

>  <generation_date>  (237) 
nan

$$$$
5CB5_0_D_γ-3Q6Z_0_A_β
     RDKit          3D

 16 16  0  0  0  0  0  0  0  0999 V2000
    0.4370   12.6500   -4.1070 O   0  0  0  0  0  0  0  0  0  0  0  0
   -0.3640   13.7790   -4.0050 C   0  0  1  0  0  0  0  0  0  0  0  0
    0.0320   14.6960   -2.8530 C   0  0  0  0  0  0  0  0  0  0  0  0
   -0.2040   14.6390   -5.2150 C   0  0  2  0  0  0  0  0  0  0  0  0
    1.0790   14.4010   -5.7070 O   0  0  0  0  0  0  0  0  0  0  0  0
    0.4330   15.8960   -3.4630 O   0  0  0  0  0  0  0  0  0  0  0  0
   -0.3520   15.9660   -4.5890 C   0  0  1  0  0  0  0  0  0  0  0  0
   -0.0630   17.2000   -5.4390 C   0  0  0  0  0  0  0  0  0  0  0  0
   -1.5190   18.0920   -5.7600 P   0  0  0  0  0  0  0  0  0  0  0  0
   -0.9170   19.4050   -6.2590 O   0  0  0  0  0  0  0  0  0  0  0  0
   -2.0740   19.1240   -4.5540 O   0  0  0  0  0  0  0  0  0  0  0  0
   -2.4850   17.8900   -7.0230 O   0  0  0  0  0  0  0  0  0  0  0  0
   -0.1040   19.6640   -7.5940 P   0  0  0  0  0  0  0  0  0  0  0  0
   -1.3380   20.2320   -8.3020 O   0  0  0  0  0  0  0  0  0  0  0  0
    0.0290   18.5170   -8.7940 O   0  0  0  0  0  0  0  0  0  0  0  0
    0.7660   21.0640   -7.7260 O   0  0  0  0  0  0  0  0  0  0  0  0
  2  1  1  6
  2  3  1  0
  2  4  1  0
  4  5  1  1
  3  6  1  0
  4  7  1  0
  6  7  1  0
  7  8  1  6
  8  9  1  0
  9 10  1  0
  9 11  1  0
  9 12  1  0
 10 13  1  0
 13 14  1  0
 13 15  1  0
 13 16  1  0
M  CHG  2  11  -1  15  -1
M  END
>  <%Rank>  (238) 
18.091603

>  <N_hits>  (238) 
2

>  <submitter_name>  (238) 
nan

>  <original SMILES>  (238) 
nan

>  <∆G_unbound>  (238) 
0.68341

>  <∆G_bound>  (238) 
-7.571192

>  <regarded>  (238) 
5CB5_0_D_γ,3Q6Z_0_A_β

>  <ref_pdb>  (238) 
nan

>  <smiles>  (238) 
[O-][PH](O)(O)O[PH]([O-])(O)CC1OCC(O)C1O

>  <submitter_email>  (238) 
nan

>  <disregarded>  (238) 


>  <LE>  (238) 
-0.515913

>  <submitter_institution>  (238) 
nan

>  <ref_mols>  (238) 
5CB5_0_D,3Q6Z_0_A

>  <N_constrained_atoms>  (238) 
16.0

>  <ref_url>  (238) 
nan

>  <method>  (238) 
nan

>  <comRMSD>  (238) 
0.598051

>  <N_unconstrained_atoms>  (238) 
0.0

>  <∆∆G>  (238) 
-8.254603

>  <runtime>  (238) 
25.474275

>  <generation_date>  (238) 
nan

$$$$
mArh-x0417_0_B_α-3EW5_1_B_α
     RDKit          3D

 30 31  0  0  0  0  0  0  0  0999 V2000
   -2.1790   31.4760  -16.7080 N   0  0  0  0  0  0  0  0  0  0  0  0
   -1.6190   31.3250  -18.0070 C   0  0  0  0  0  0  0  0  0  0  0  0
   -2.9780   30.4160  -16.1890 C   0  0  1  0  0  0  0  0  0  0  0  0
   -2.2890   29.1550  -15.7340 C   0  0  0  0  0  0  0  0  0  0  0  0
   -3.6650   30.7840  -14.9370 C   0  0  0  0  0  0  0  0  0  0  0  0
   -3.6920   31.9260  -14.4520 O   0  0  0  0  0  0  0  0  0  0  0  0
   -3.1970   28.6010  -14.6470 C   0  0  0  0  0  0  0  0  0  0  0  0
   -4.2480   29.6050  -14.4380 N   0  0  0  0  0  0  0  0  0  0  0  0
   -5.3130   29.4980  -13.5200 C   0  0  0  0  0  0  0  0  0  0  0  0
   -6.4770   30.2250  -13.7230 C   0  0  0  0  0  0  0  0  0  0  0  0
   -5.2970   28.6890  -12.3780 C   0  0  0  0  0  0  0  0  0  0  0  0
   -4.2030   27.9240  -12.1480 O   0  0  0  0  0  0  0  0  0  0  0  0
   -7.5620   30.2120  -12.9100 C   0  0  0  0  0  0  0  0  0  0  0  0
   -6.3910   28.6740  -11.5350 C   0  0  0  0  0  0  0  0  0  0  0  0
   -4.1450   26.5680  -12.3830 C   0  0  0  0  0  0  0  0  0  0  0  0
   -7.5290   29.4290  -11.7870 C   0  0  0  0  0  0  0  0  0  0  0  0
   -5.3290   25.6800  -12.2630 C   0  0  0  0  0  0  0  0  0  0  0  0
   -5.6590   24.8100  -11.1360 C   0  0  0  0  0  0  0  0  0  0  0  0
   -4.7650   23.9000  -10.4540 C   0  0  0  0  0  0  0  0  0  0  0  0
   -5.0650   23.1460   -9.2160 C   0  0  0  0  0  0  0  0  0  0  0  0
   -3.9880   22.2510   -8.8790 O   0  0  0  0  0  0  0  0  0  0  0  0
   -3.9420   22.0320   -7.5190 C   0  0  2  0  0  0  0  0  0  0  0  0
   -2.8850   21.0220   -7.0690 C   0  0  0  0  0  0  0  0  0  0  0  0
   -5.2740   21.3410   -7.1300 C   0  0  0  0  0  0  0  0  0  0  0  0
   -1.7980   21.0660   -7.9190 O   0  0  0  0  0  0  0  0  0  0  0  0
   -5.6620   21.6630   -5.8490 O   0  0  0  0  0  0  0  0  0  0  0  0
   -0.6420   19.9800   -7.5760 P   0  0  0  0  0  0  0  0  0  0  0  0
   -0.3720   19.4220   -8.9470 O   0  0  0  0  0  0  0  0  0  0  0  0
   -1.1020   18.4090   -7.1340 O   0  0  0  0  0  0  0  0  0  0  0  0
    0.9120   20.4490   -7.3910 O   0  0  0  0  0  0  0  0  0  0  0  0
  1  2  1  0
  3  1  1  1
  3  4  1  0
  3  5  1  0
  5  6  2  0
  4  7  1  0
  5  8  1  0
  7  8  1  0
  8  9  1  0
  9 10  2  0
  9 11  1  0
 11 12  1  0
 10 13  1  0
 11 14  2  0
 12 15  1  0
 13 16  2  0
 14 16  1  0
 15 17  1  0
 17 18  1  0
 18 19  1  0
 19 20  1  0
 20 21  1  0
 21 22  1  0
 22 23  1  6
 22 24  1  0
 23 25  1  0
 24 26  1  0
 25 27  1  0
 27 28  1  0
 27 29  1  0
 27 30  1  0
M  CHG  1  29  -1
M  END
>  <%Rank>  (239) 
18.167939

>  <N_hits>  (239) 
2

>  <submitter_name>  (239) 
nan

>  <original SMILES>  (239) 
nan

>  <∆G_unbound>  (239) 
1.68863

>  <∆G_bound>  (239) 
-9.67075

>  <regarded>  (239) 
mArh-x0417_0_B_α,3EW5_1_B_α

>  <ref_pdb>  (239) 
nan

>  <smiles>  (239) 
CNC1CCN(c2ccccc2OCCCCCO[C@@H](CO)CO[PH]([O-])(O)O)C1=O

>  <submitter_email>  (239) 
nan

>  <disregarded>  (239) 


>  <LE>  (239) 
-0.378646

>  <submitter_institution>  (239) 
nan

>  <ref_mols>  (239) 
mArh-x0417_0_B,3EW5_1_B

>  <N_constrained_atoms>  (239) 
25.0

>  <ref_url>  (239) 
nan

>  <method>  (239) 
nan

>  <comRMSD>  (239) 
0.596355

>  <N_unconstrained_atoms>  (239) 
5.0

>  <∆∆G>  (239) 
-11.35938

>  <runtime>  (239) 
49.350072

>  <generation_date>  (239) 
nan

$$$$
mArh-4gvw_0_A_α-mArh-5cb5_A_0_A_γ
     RDKit          3D

 22 23  0  0  0  0  0  0  0  0999 V2000
   -0.9470   20.2620   -6.1330 O   0  0  0  0  0  0  0  0  0  0  0  0
   -0.4390   20.3610   -7.4690 S   0  0  0  0  0  0  0  0  0  0  0  0
    0.8150   21.0170   -7.7720 O   0  0  0  0  0  0  0  0  0  0  0  0
   -0.4650   18.8220   -7.9050 O   0  0  0  0  0  0  0  0  0  0  0  0
   -1.8040   20.9920   -8.3450 C   0  0  0  0  0  0  0  0  0  0  0  0
   -2.2020   22.3580   -7.8900 C   0  0  0  0  0  0  0  0  0  0  0  0
   -0.8040   18.1900   -6.6680 C   0  0  0  0  0  0  0  0  0  0  0  0
    0.4130   18.1790   -5.7410 C   0  0  0  0  0  0  0  0  0  0  0  0
   -3.6220   22.4360   -7.6240 N   0  0  0  0  0  0  0  0  0  0  0  0
    0.8480   16.8280   -5.1730 C   0  0  0  0  0  0  0  0  0  0  0  0
   -3.8380   23.4320   -6.5890 C   0  0  0  0  0  0  0  0  0  0  0  0
   -4.3800   22.7560   -8.8420 C   0  0  0  0  0  0  0  0  0  0  0  0
   -5.2740   23.7680   -6.4050 C   0  0  0  0  0  0  0  0  0  0  0  0
   -5.8690   22.9580   -8.5460 C   0  0  0  0  0  0  0  0  0  0  0  0
   -0.2240   15.8390   -4.7350 C   0  0  2  0  0  0  0  0  0  0  0  0
   -6.0430   23.9890   -7.5750 O   0  0  0  0  0  0  0  0  0  0  0  0
   -0.2580   15.8080   -3.2950 O   0  0  0  0  0  0  0  0  0  0  0  0
    0.0410   14.3760   -5.0860 C   0  0  1  0  0  0  0  0  0  0  0  0
    1.4130   14.0120   -4.8570 O   0  0  0  0  0  0  0  0  0  0  0  0
   -0.9730   14.6200   -2.9260 C   0  0  0  0  0  0  0  0  0  0  0  0
   -0.7990   13.6250   -4.0660 C   0  0  1  0  0  0  0  0  0  0  0  0
   -2.0170   13.1870   -4.6300 O   0  0  0  0  0  0  0  0  0  0  0  0
  1  2  2  0
  2  3  2  0
  2  4  1  0
  2  5  1  0
  5  6  1  0
  4  7  1  0
  7  8  1  0
  6  9  1  0
  8 10  1  0
  9 11  1  0
  9 12  1  0
 11 13  1  0
 12 14  1  0
 15 10  1  1
 13 16  1  0
 14 16  1  0
 15 17  1  0
 15 18  1  0
 18 19  1  1
 17 20  1  0
 18 21  1  0
 20 21  1  0
 21 22  1  6
M  END
>  <%Rank>  (240) 
18.244275

>  <N_hits>  (240) 
2

>  <submitter_name>  (240) 
nan

>  <original SMILES>  (240) 
nan

>  <∆G_unbound>  (240) 
1.068134

>  <∆G_bound>  (240) 
-8.611278

>  <regarded>  (240) 
mArh-4gvw_0_A_α,mArh-5cb5_A_0_A_γ

>  <ref_pdb>  (240) 
nan

>  <smiles>  (240) 
O=S(=O)(CCN1CCOCC1)OCCCC1OCC(O)C1O

>  <submitter_email>  (240) 
nan

>  <disregarded>  (240) 


>  <LE>  (240) 
-0.439973

>  <submitter_institution>  (240) 
nan

>  <ref_mols>  (240) 
mArh-4gvw_0_A,mArh-5cb5_A_0_A

>  <N_constrained_atoms>  (240) 
20.0

>  <ref_url>  (240) 
nan

>  <method>  (240) 
nan

>  <comRMSD>  (240) 
0.594379

>  <N_unconstrained_atoms>  (240) 
2.0

>  <∆∆G>  (240) 
-9.679411

>  <runtime>  (240) 
36.394284

>  <generation_date>  (240) 
nan

$$$$
mArh-x0371_0_A_β-mArh-5cms_N_13_N_γ
     RDKit          3D

 20 22  0  0  0  0  0  0  0  0999 V2000
   -8.5520   14.4460    1.7230 C   0  0  0  0  0  0  0  0  0  0  0  0
   -7.2890   14.5970    0.9700 C   0  0  0  0  0  0  0  0  0  0  0  0
   -6.0680   14.6200    1.5950 N   0  0  0  0  0  0  0  0  0  0  0  0
   -7.1540   14.7220   -0.3330 N   0  0  0  0  0  0  0  0  0  0  0  0
   -5.1070   14.7650    0.6480 C   0  0  0  0  0  0  0  0  0  0  0  0
   -5.8040   14.8210   -0.5490 C   0  0  0  0  0  0  0  0  0  0  0  0
   -3.7270   14.8420    0.7570 C   0  0  0  0  0  0  0  0  0  0  0  0
   -5.0960   14.9560   -1.7350 C   0  0  0  0  0  0  0  0  0  0  0  0
   -3.0420   14.9670   -0.4320 C   0  0  0  0  0  0  0  0  0  0  0  0
   -3.7050   15.0190   -1.6610 C   0  0  0  0  0  0  0  0  0  0  0  0
   -2.9010   15.1260   -2.8870 C   0  0  0  0  0  0  0  0  0  0  0  0
   -1.4710   14.6860   -2.6240 C   0  0  0  0  0  0  0  0  0  0  0  0
   -0.5610   14.7710   -3.8070 C   0  0  1  0  0  0  0  0  0  0  0  0
    0.5520   15.6250   -3.6560 O   0  0  0  0  0  0  0  0  0  0  0  0
   -0.0040   13.5190   -4.4410 C   0  0  2  0  0  0  0  0  0  0  0  0
    0.9160   12.7230   -3.7070 O   0  0  0  0  0  0  0  0  0  0  0  0
    1.1400   15.5670   -4.9620 C   0  0  1  0  0  0  0  0  0  0  0  0
    0.6580   14.2140   -5.5860 C   0  0  1  0  0  0  0  0  0  0  0  0
    0.7490   16.8790   -5.6340 C   0  0  0  0  0  0  0  0  0  0  0  0
    1.6530   13.3260   -6.0970 O   0  0  0  0  0  0  0  0  0  0  0  0
  1  2  1  0
  2  3  1  0
  2  4  2  0
  3  5  1  0
  4  6  1  0
  5  6  2  0
  5  7  1  0
  6  8  1  0
  7  9  2  0
  8 10  2  0
  9 10  1  0
 10 11  1  0
 11 12  1  0
 13 12  1  1
 13 14  1  0
 13 15  1  0
 15 16  1  1
 14 17  1  0
 15 18  1  0
 17 18  1  0
 17 19  1  6
 18 20  1  1
M  END
>  <%Rank>  (241) 
18.320611

>  <N_hits>  (241) 
2

>  <submitter_name>  (241) 
nan

>  <original SMILES>  (241) 
nan

>  <∆G_unbound>  (241) 
1.386997

>  <∆G_bound>  (241) 
-7.377008

>  <regarded>  (241) 
mArh-x0371_0_A_β,mArh-5cms_N_13_N_γ

>  <ref_pdb>  (241) 
nan

>  <smiles>  (241) 
Cc1nc2cc(CCC3OC(C)C(O)C3O)ccc2[nH]1

>  <submitter_email>  (241) 
nan

>  <disregarded>  (241) 


>  <LE>  (241) 
-0.4382

>  <submitter_institution>  (241) 
nan

>  <ref_mols>  (241) 
mArh-x0371_0_A,mArh-5cms_N_13_N

>  <N_constrained_atoms>  (241) 
18.0

>  <ref_url>  (241) 
nan

>  <method>  (241) 
nan

>  <comRMSD>  (241) 
0.548819

>  <N_unconstrained_atoms>  (241) 
2.0

>  <∆∆G>  (241) 
-8.764005

>  <runtime>  (241) 
42.93973

>  <generation_date>  (241) 
nan

$$$$
mArh-x0969_0_A_α-mArh-5cms_P_15_P_γ
     RDKit          3D

 19 21  0  0  0  0  0  0  0  0999 V2000
   -6.7250   14.8450    2.5240 N   0  0  0  0  0  0  0  0  0  0  0  0
   -6.4630   14.7710    1.1920 C   0  0  0  0  0  0  0  0  0  0  0  0
   -7.3500   14.6960    0.2220 N   0  0  0  0  0  0  0  0  0  0  0  0
   -5.1920   14.7710    0.6400 N   0  0  0  0  0  0  0  0  0  0  0  0
   -6.6800   14.6390   -0.9830 N   0  0  0  0  0  0  0  0  0  0  0  0
   -5.3850   14.6730   -0.7320 C   0  0  0  0  0  0  0  0  0  0  0  0
   -3.9330   14.8400    1.2240 C   0  0  0  0  0  0  0  0  0  0  0  0
   -4.2230   14.6060   -1.5690 C   0  0  0  0  0  0  0  0  0  0  0  0
   -2.8430   14.7670    0.4490 C   0  0  0  0  0  0  0  0  0  0  0  0
   -2.9820   14.6200   -1.0040 C   0  0  0  0  0  0  0  0  0  0  0  0
   -1.6560   14.4630   -1.7490 C   0  0  0  0  0  0  0  0  0  0  0  0
   -1.6030   14.8150   -3.2460 C   0  0  1  0  0  0  0  0  0  0  0  0
   -0.4590   15.6670   -3.4320 O   0  0  0  0  0  0  0  0  0  0  0  0
   -1.4340   13.6860   -4.2990 C   0  0  2  0  0  0  0  0  0  0  0  0
   -1.2600   12.3590   -3.8320 O   0  0  0  0  0  0  0  0  0  0  0  0
   -0.2520   15.6220   -4.8360 C   0  0  2  0  0  0  0  0  0  0  0  0
   -0.2150   14.1250   -5.1200 C   0  0  1  0  0  0  0  0  0  0  0  0
    0.9620   16.4420   -5.1970 C   0  0  0  0  0  0  0  0  0  0  0  0
    0.9720   13.4640   -4.7020 O   0  0  0  0  0  0  0  0  0  0  0  0
  1  2  1  0
  2  3  2  0
  2  4  1  0
  3  5  1  0
  4  6  1  0
  5  6  2  0
  4  7  1  0
  6  8  1  0
  7  9  2  0
  8 10  2  0
  9 10  1  0
 10 11  1  0
 12 11  1  1
 12 13  1  0
 12 14  1  0
 14 15  1  1
 13 16  1  0
 14 17  1  0
 16 17  1  0
 16 18  1  1
 17 19  1  1
M  END
>  <%Rank>  (242) 
18.396947

>  <N_hits>  (242) 
2

>  <submitter_name>  (242) 
nan

>  <original SMILES>  (242) 
nan

>  <∆G_unbound>  (242) 
0.510778

>  <∆G_bound>  (242) 
-6.215858

>  <regarded>  (242) 
mArh-x0969_0_A_α,mArh-5cms_P_15_P_γ

>  <ref_pdb>  (242) 
nan

>  <smiles>  (242) 
CC1OC(Cc2ccn3c(N)nnc3c2)C(O)C1O

>  <submitter_email>  (242) 
nan

>  <disregarded>  (242) 


>  <LE>  (242) 
-0.354033

>  <submitter_institution>  (242) 
nan

>  <ref_mols>  (242) 
mArh-x0969_0_A,mArh-5cms_P_15_P

>  <N_constrained_atoms>  (242) 
18.0

>  <ref_url>  (242) 
nan

>  <method>  (242) 
nan

>  <comRMSD>  (242) 
0.53531

>  <N_unconstrained_atoms>  (242) 
1.0

>  <∆∆G>  (242) 
-6.726636

>  <runtime>  (242) 
36.501631

>  <generation_date>  (242) 
nan

$$$$
mArh-EU0342_0_A_α-5CMS_0_G_α
     RDKit          3D

 24 24  0  0  0  0  0  0  0  0999 V2000
    0.3590   15.2270    0.5360 C   0  0  0  0  0  0  0  0  0  0  0  0
   -0.9020   15.1080   -0.1740 N   0  0  0  0  0  0  0  0  0  0  0  0
   -2.0260   15.0680    0.6170 C   0  0  0  0  0  0  0  0  0  0  0  0
   -0.7490   14.9040   -1.5850 C   0  0  0  0  0  0  0  0  0  0  0  0
   -1.8740   14.6220    1.8130 O   0  0  0  0  0  0  0  0  0  0  0  0
   -0.1880   16.0580   -2.3200 C   0  0  0  0  0  0  0  0  0  0  0  0
   -3.3840   15.4710    0.2550 C   0  0  2  0  0  0  0  0  0  0  0  0
   -0.9060   16.4260   -3.5700 C   0  0  0  0  0  0  0  0  0  0  0  0
   -4.3220   14.5170    0.9210 C   0  0  0  0  0  0  0  0  0  0  0  0
   -3.6250   15.4780   -1.1770 C   0  0  0  0  0  0  0  0  0  0  0  0
   -0.4370   17.8040   -4.0240 C   0  0  0  0  0  0  0  0  0  0  0  0
   -5.6820   14.9150    0.6280 N   0  0  0  0  0  0  0  0  0  0  0  0
   -4.8380   15.3260   -1.6380 C   0  0  0  0  0  0  0  0  0  0  0  0
   -1.5370   18.4400   -4.5390 O   0  0  0  0  0  0  0  0  0  0  0  0
   -5.9840   15.1500   -0.7600 C   0  0  0  0  0  0  0  0  0  0  0  0
   -7.1760   15.1920   -1.1010 O   0  0  0  0  0  0  0  0  0  0  0  0
   -1.5800   17.9880   -6.0680 P   0  0  0  0  0  0  0  0  0  0  0  0
   -0.1450   17.4560   -6.6660 O   0  0  0  0  0  0  0  0  0  0  0  0
   -2.9300   17.7680   -6.9390 O   0  0  0  0  0  0  0  0  0  0  0  0
   -1.3290   19.3600   -6.6230 O   0  0  0  0  0  0  0  0  0  0  0  0
   -0.2360   19.7070   -7.7220 P   0  0  0  0  0  0  0  0  0  0  0  0
   -1.2460   20.1500   -8.7850 O   0  0  0  0  0  0  0  0  0  0  0  0
    0.1490   18.5140   -8.8630 O   0  0  0  0  0  0  0  0  0  0  0  0
    0.6590   21.0700   -7.7800 O   0  0  0  0  0  0  0  0  0  0  0  0
  1  2  1  0
  2  3  1  0
  2  4  1  0
  3  5  2  0
  4  6  1  0
  7  3  1  6
  6  8  1  0
  7  9  1  0
  7 10  1  0
  8 11  1  0
  9 12  1  0
 10 13  2  0
 11 14  1  0
 12 15  1  0
 13 15  1  0
 15 16  2  0
 14 17  1  0
 17 18  1  0
 17 19  1  0
 17 20  1  0
 20 21  1  0
 21 22  1  0
 21 23  1  0
 21 24  1  0
M  CHG  1  23  -1
M  END
>  <%Rank>  (243) 
18.473282

>  <N_hits>  (243) 
2

>  <submitter_name>  (243) 
nan

>  <original SMILES>  (243) 
nan

>  <∆G_unbound>  (243) 
0.134115

>  <∆G_bound>  (243) 
-13.888761

>  <regarded>  (243) 
mArh-EU0342_0_A_α,5CMS_0_G_α

>  <ref_pdb>  (243) 
nan

>  <smiles>  (243) 
CN(CCCCO[PH](O)(O)O[PH]([O-])(O)O)C(=O)C1C=CC(=O)NC1

>  <submitter_email>  (243) 
nan

>  <disregarded>  (243) 


>  <LE>  (243) 
-0.584287

>  <submitter_institution>  (243) 
nan

>  <ref_mols>  (243) 
mArh-EU0342_0_A,5CMS_0_G

>  <N_constrained_atoms>  (243) 
20.0

>  <ref_url>  (243) 
nan

>  <method>  (243) 
nan

>  <comRMSD>  (243) 
0.619399

>  <N_unconstrained_atoms>  (243) 
4.0

>  <∆∆G>  (243) 
-14.022876

>  <runtime>  (243) 
39.871392

>  <generation_date>  (243) 
nan

$$$$
5CB5_0_K_γ-mArh-EU0815_0_A_α
     RDKit          3D

 22 22  0  0  0  0  0  0  0  0999 V2000
   -0.5740   12.3790   -4.0250 O   0  0  0  0  0  0  0  0  0  0  0  0
   -0.9010   13.7440   -4.2650 C   0  0  1  0  0  0  0  0  0  0  0  0
   -0.9550   14.5930   -2.9970 C   0  0  2  0  0  0  0  0  0  0  0  0
    0.2240   14.4070   -5.0630 C   0  0  2  0  0  0  0  0  0  0  0  0
    1.4000   13.5900   -4.9630 O   0  0  0  0  0  0  0  0  0  0  0  0
   -2.2970   14.5140   -2.2520 C   0  0  0  0  0  0  0  0  0  0  0  0
   -0.6830   15.9300   -3.4670 O   0  0  0  0  0  0  0  0  0  0  0  0
    0.4340   15.7660   -4.3770 C   0  0  2  0  0  0  0  0  0  0  0  0
    0.4530   16.9440   -5.3510 C   0  0  0  0  0  0  0  0  0  0  0  0
   -2.6250   15.7430   -1.4230 C   0  0  0  0  0  0  0  0  0  0  0  0
   -3.7000   15.4870   -0.3570 C   0  0  0  0  0  0  0  0  0  0  0  0
   -5.1540   15.5620   -0.8710 C   0  0  0  0  0  0  0  0  0  0  0  0
   -6.1960   14.8380   -0.0050 C   0  0  0  0  0  0  0  0  0  0  0  0
   -5.7350   14.7260    1.4480 C   0  0  0  0  0  0  0  0  0  0  0  0
   -6.7190   14.2500    2.4190 N   0  0  0  0  0  0  0  0  0  0  0  0
   -7.8110   14.9800    2.8430 C   0  0  0  0  0  0  0  0  0  0  0  0
   -7.8150   15.0940    4.2160 N   0  0  0  0  0  0  0  0  0  0  0  0
   -8.6720   15.4570    2.1160 O   0  0  0  0  0  0  0  0  0  0  0  0
   -9.0600   14.9840    4.9840 C   0  0  1  0  0  0  0  0  0  0  0  0
   -9.3840   13.5100    5.2280 C   0  0  0  0  0  0  0  0  0  0  0  0
   -8.9840   15.7800    6.3040 C   0  0  0  0  0  0  0  0  0  0  0  0
  -10.2190   15.7550    7.0170 O   0  0  0  0  0  0  0  0  0  0  0  0
  2  1  1  1
  2  3  1  0
  2  4  1  0
  4  5  1  1
  3  6  1  6
  3  7  1  0
  4  8  1  0
  7  8  1  0
  8  9  1  6
  6 10  1  0
 10 11  1  0
 11 12  1  0
 12 13  1  0
 13 14  1  0
 14 15  1  0
 15 16  1  0
 16 17  1  0
 16 18  2  0
 17 19  1  0
 19 20  1  1
 19 21  1  0
 21 22  1  0
M  END
>  <%Rank>  (244) 
18.549618

>  <N_hits>  (244) 
2

>  <submitter_name>  (244) 
nan

>  <original SMILES>  (244) 
nan

>  <∆G_unbound>  (244) 
1.287807

>  <∆G_bound>  (244) 
-6.150121

>  <regarded>  (244) 
5CB5_0_K_γ,mArh-EU0815_0_A_α

>  <ref_pdb>  (244) 
nan

>  <smiles>  (244) 
CC1OC(CCCCCCNC(=O)N[C@@H](C)CO)C(O)C1O

>  <submitter_email>  (244) 
nan

>  <disregarded>  (244) 


>  <LE>  (244) 
-0.338088

>  <submitter_institution>  (244) 
nan

>  <ref_mols>  (244) 
5CB5_0_K,mArh-EU0815_0_A

>  <N_constrained_atoms>  (244) 
16.0

>  <ref_url>  (244) 
nan

>  <method>  (244) 
nan

>  <comRMSD>  (244) 
0.326058

>  <N_unconstrained_atoms>  (244) 
6.0

>  <∆∆G>  (244) 
-7.437928

>  <runtime>  (244) 
28.205255

>  <generation_date>  (244) 
nan

$$$$
mArh-5cb5_B_0_B_γ-5CB5_0_R_β
     RDKit          3D

 16 16  0  0  0  0  0  0  0  0999 V2000
   -0.5670   12.5740   -3.9110 O   0  0  0  0  0  0  0  0  0  0  0  0
   -0.8640   13.9290   -3.9280 C   0  0  1  0  0  0  0  0  0  0  0  0
   -0.2170   14.7210   -2.7940 C   0  0  0  0  0  0  0  0  0  0  0  0
   -0.2940   14.6070   -5.1270 C   0  0  2  0  0  0  0  0  0  0  0  0
    1.0350   14.1860   -5.2630 O   0  0  0  0  0  0  0  0  0  0  0  0
    0.2180   15.9300   -3.3890 O   0  0  0  0  0  0  0  0  0  0  0  0
   -0.4490   15.9790   -4.5990 C   0  0  1  0  0  0  0  0  0  0  0  0
   -0.1070   17.2030   -5.4660 C   0  0  0  0  0  0  0  0  0  0  0  0
   -1.5540   18.1460   -5.7410 P   0  0  0  0  0  0  0  0  0  0  0  0
   -1.1090   19.4150   -6.4800 O   0  0  0  0  0  0  0  0  0  0  0  0
   -2.5750   17.8570   -7.0580 O   0  0  0  0  0  0  0  0  0  0  0  0
   -2.0970   19.1160   -4.6120 O   0  0  0  0  0  0  0  0  0  0  0  0
   -0.0480   19.6190   -7.6350 P   0  0  0  0  0  0  0  0  0  0  0  0
   -1.0130   20.5210   -8.4090 O   0  0  0  0  0  0  0  0  0  0  0  0
    1.0610   20.8890   -7.6010 O   0  0  0  0  0  0  0  0  0  0  0  0
    0.0800   18.5100   -8.8330 O   0  0  0  0  0  0  0  0  0  0  0  0
  2  1  1  1
  2  3  1  0
  2  4  1  0
  4  5  1  1
  3  6  1  0
  4  7  1  0
  6  7  1  0
  7  8  1  6
  8  9  1  0
  9 10  1  0
  9 11  1  0
  9 12  1  0
 10 13  1  0
 13 14  1  0
 13 15  1  0
 13 16  1  0
M  CHG  2  11  -1  15  -1
M  END
>  <%Rank>  (245) 
18.625954

>  <N_hits>  (245) 
2

>  <submitter_name>  (245) 
nan

>  <original SMILES>  (245) 
nan

>  <∆G_unbound>  (245) 
0.683631

>  <∆G_bound>  (245) 
-7.528763

>  <regarded>  (245) 
mArh-5cb5_B_0_B_γ,5CB5_0_R_β

>  <ref_pdb>  (245) 
nan

>  <smiles>  (245) 
[O-][PH](O)(O)O[PH]([O-])(O)CC1OCC(O)C1O

>  <submitter_email>  (245) 
nan

>  <disregarded>  (245) 


>  <LE>  (245) 
-0.513275

>  <submitter_institution>  (245) 
nan

>  <ref_mols>  (245) 
mArh-5cb5_B_0_B,5CB5_0_R

>  <N_constrained_atoms>  (245) 
16.0

>  <ref_url>  (245) 
nan

>  <method>  (245) 
nan

>  <comRMSD>  (245) 
0.601388

>  <N_unconstrained_atoms>  (245) 
0.0

>  <∆∆G>  (245) 
-8.212394

>  <runtime>  (245) 
35.451326

>  <generation_date>  (245) 
nan

$$$$
6WOJ_0_D_δ-mArh-EU0172_0_A_α
     RDKit          3D

 18 20  0  0  0  0  0  0  0  0999 V2000
   -3.9160   15.3770    1.9120 N   0  0  0  0  0  0  0  0  0  0  0  0
   -2.7850   15.1880    1.0280 C   0  0  2  0  0  0  0  0  0  0  0  0
   -3.1760   14.4480   -0.2450 C   0  0  2  0  0  0  0  0  0  0  0  0
   -1.7840   14.5510    1.8190 N   0  0  0  0  0  0  0  0  0  0  0  0
   -1.8710   13.8590   -0.8430 C   0  0  1  0  0  0  0  0  0  0  0  0
   -3.6850   15.3520   -1.3160 N   0  0  0  0  0  0  0  0  0  0  0  0
   -0.5140   14.2570    1.1800 C   0  0  0  0  0  0  0  0  0  0  0  0
   -4.2390   13.4090    0.2250 C   0  0  0  0  0  0  0  0  0  0  0  0
   -1.8020   14.3140   -2.2360 N   0  0  0  0  0  0  0  0  0  0  0  0
   -3.1200   14.8550   -2.5560 C   0  0  0  0  0  0  0  0  0  0  0  0
   -0.5990   14.2590   -0.2620 N   0  0  0  0  0  0  0  0  0  0  0  0
   -5.5320   14.0410    0.5040 N   0  0  0  0  0  0  0  0  0  0  0  0
   -5.1540   15.6330   -1.3710 C   0  0  0  0  0  0  0  0  0  0  0  0
   -6.4170   13.5030    1.5460 C   0  0  0  0  0  0  0  0  0  0  0  0
   -6.1040   14.7850   -0.5090 C   0  0  0  0  0  0  0  0  0  0  0  0
   -7.0900   14.5670    2.4490 C   0  0  0  0  0  0  0  0  0  0  0  0
   -7.3180   14.7890   -0.7100 O   0  0  0  0  0  0  0  0  0  0  0  0
   -7.9150   14.0100    3.5280 N   0  0  0  0  0  0  0  0  0  0  0  0
  2  1  1  1
  2  3  1  0
  2  4  1  0
  3  5  1  0
  3  6  1  0
  4  7  1  0
  3  8  1  1
  5  9  1  6
  6 10  1  0
  9 10  1  0
  5 11  1  0
  7 11  1  0
  8 12  1  0
  6 13  1  0
 12 14  1  0
 12 15  1  0
 13 15  1  0
 14 16  1  0
 15 17  2  0
 16 18  1  0
M  END
>  <%Rank>  (246) 
18.70229

>  <N_hits>  (246) 
2

>  <submitter_name>  (246) 
nan

>  <original SMILES>  (246) 
nan

>  <∆G_unbound>  (246) 
1.047836

>  <∆G_bound>  (246) 
-2.197402

>  <regarded>  (246) 
6WOJ_0_D_δ,mArh-EU0172_0_A_α

>  <ref_pdb>  (246) 
nan

>  <smiles>  (246) 
NCCN1CC23C(N)NCNC2NCN3CC1=O

>  <submitter_email>  (246) 
nan

>  <disregarded>  (246) 


>  <LE>  (246) 
-0.180291

>  <submitter_institution>  (246) 
nan

>  <ref_mols>  (246) 
6WOJ_0_D,mArh-EU0172_0_A

>  <N_constrained_atoms>  (246) 
18.0

>  <ref_url>  (246) 
nan

>  <method>  (246) 
nan

>  <comRMSD>  (246) 
0.479263

>  <N_unconstrained_atoms>  (246) 
0.0

>  <∆∆G>  (246) 
-3.245238

>  <runtime>  (246) 
31.502376

>  <generation_date>  (246) 
nan

$$$$
2FAV_0_B_α-mArh-6fx_7_0A_β
     RDKit          3D

 16 16  0  0  0  0  0  0  0  0999 V2000
   -1.7080   21.8540   -7.8630 C   0  0  0  0  0  0  0  0  0  0  0  0
   -0.7330   20.3360   -7.8020 P   0  0  1  0  0  0  0  0  0  0  0  0
   -0.9360   19.8080   -6.3210 O   0  0  0  0  0  0  0  0  0  0  0  0
   -3.1860   21.7060   -8.2260 C   0  0  1  0  0  0  0  0  0  0  0  0
   -0.8700   19.2040   -8.7670 O   0  0  0  0  0  0  0  0  0  0  0  0
    0.7720   20.8930   -7.7840 O   0  0  0  0  0  0  0  0  0  0  0  0
   -3.7790   20.9180   -7.1870 O   0  0  0  0  0  0  0  0  0  0  0  0
   -4.1400   22.9180   -8.2000 C   0  0  2  0  0  0  0  0  0  0  0  0
   -3.8800   24.0300   -9.0240 O   0  0  0  0  0  0  0  0  0  0  0  0
   -1.5860   18.3980   -6.0020 P   0  0  0  0  0  0  0  0  0  0  0  0
   -4.3990   21.8110   -6.2190 C   0  0  0  0  0  0  0  0  0  0  0  0
   -4.1880   23.2280   -6.7220 C   0  0  2  0  0  0  0  0  0  0  0  0
   -5.2930   24.0920   -6.3940 O   0  0  0  0  0  0  0  0  0  0  0  0
   -0.4240   17.3670   -6.2990 O   0  0  0  0  0  0  0  0  0  0  0  0
   -2.0990   18.2500   -4.6350 O   0  0  0  0  0  0  0  0  0  0  0  0
   -2.6290   18.0810   -7.1500 O   0  0  0  0  0  0  0  0  0  0  0  0
  1  2  1  0
  2  3  1  0
  4  1  1  1
  2  5  2  0
  2  6  1  1
  4  7  1  0
  4  8  1  0
  8  9  1  6
  3 10  1  0
  7 11  1  0
  8 12  1  0
 11 12  1  0
 12 13  1  6
 10 14  1  0
 10 15  2  0
 10 16  1  0
M  END
>  <%Rank>  (247) 
18.778626

>  <N_hits>  (247) 
2

>  <submitter_name>  (247) 
nan

>  <original SMILES>  (247) 
nan

>  <∆G_unbound>  (247) 
1.071724

>  <∆G_bound>  (247) 
-11.149973

>  <regarded>  (247) 
2FAV_0_B_α,mArh-6fx_7_0A_β

>  <ref_pdb>  (247) 
nan

>  <smiles>  (247) 
O=P(O)(O)OP(=O)(O)CC1OCC(O)C1O

>  <submitter_email>  (247) 
nan

>  <disregarded>  (247) 


>  <LE>  (247) 
-0.763856

>  <submitter_institution>  (247) 
nan

>  <ref_mols>  (247) 
2FAV_0_B,mArh-6fx_7_0A

>  <N_constrained_atoms>  (247) 
16.0

>  <ref_url>  (247) 
nan

>  <method>  (247) 
nan

>  <comRMSD>  (247) 
0.727236

>  <N_unconstrained_atoms>  (247) 
0.0

>  <∆∆G>  (247) 
-12.221696

>  <runtime>  (247) 
34.899094

>  <generation_date>  (247) 
nan

$$$$
mArh-5cms_N_13_N_β-5CB5_0_H_δ
     RDKit          3D

 21 22  0  0  0  0  0  0  0  0999 V2000
   -1.3100   20.5930   -8.8130 O   0  0  0  0  0  0  0  0  0  0  0  0
   -0.3730   19.7980   -7.8110 P   0  0  0  0  0  0  0  0  0  0  0  0
   -1.2610   19.5220   -6.5220 O   0  0  0  0  0  0  0  0  0  0  0  0
    0.8940   20.5290   -7.5740 O   0  0  0  0  0  0  0  0  0  0  0  0
   -0.1910   18.4440   -8.6380 O   0  0  0  0  0  0  0  0  0  0  0  0
   -1.6940   18.0680   -6.1030 P   0  0  2  0  0  0  0  0  0  0  0  0
   -0.3310   17.2770   -6.2980 O   0  0  0  0  0  0  0  0  0  0  0  0
   -2.8060   17.5180   -6.9080 O   0  0  0  0  0  0  0  0  0  0  0  0
   -1.8550   17.9690   -4.5220 O   0  0  0  0  0  0  0  0  0  0  0  0
   -1.5350   16.7060   -3.9520 C   0  0  0  0  0  0  0  0  0  0  0  0
   -2.7560   15.7860   -3.8950 C   0  0  0  0  0  0  0  0  0  0  0  0
   -2.9560   14.9090   -2.6470 C   0  0  1  0  0  0  0  0  0  0  0  0
   -1.6770   14.3700   -2.1720 N   0  0  0  0  0  0  0  0  0  0  0  0
   -3.6450   15.5250   -1.4970 N   0  0  0  0  0  0  0  0  0  0  0  0
   -1.5400   14.9830   -0.8820 C   0  0  1  0  0  0  0  0  0  0  0  0
   -2.9550   14.8870   -0.3740 C   0  0  1  0  0  0  0  0  0  0  0  0
   -0.6020   14.2500   -0.0970 N   0  0  0  0  0  0  0  0  0  0  0  0
   -2.9200   15.5700    0.9780 C   0  0  1  0  0  0  0  0  0  0  0  0
   -4.1810   15.5520    1.7050 N   0  0  0  0  0  0  0  0  0  0  0  0
   -0.5830   14.8820    1.1970 C   0  0  0  0  0  0  0  0  0  0  0  0
   -1.9200   14.9430    1.7880 N   0  0  0  0  0  0  0  0  0  0  0  0
  1  2  1  0
  2  3  1  0
  2  4  2  0
  2  5  1  0
  3  6  1  0
  6  7  1  6
  6  8  2  0
  6  9  1  0
  9 10  1  0
 10 11  1  0
 12 11  1  6
 12 13  1  0
 12 14  1  0
 15 13  1  6
 16 14  1  6
 15 16  1  0
 15 17  1  0
 16 18  1  0
 18 19  1  1
 17 20  1  0
 18 21  1  0
 20 21  1  0
M  END
>  <%Rank>  (248) 
18.854962

>  <N_hits>  (248) 
2

>  <submitter_name>  (248) 
nan

>  <original SMILES>  (248) 
nan

>  <∆G_unbound>  (248) 
4.831508

>  <∆G_bound>  (248) 
-9.047491

>  <regarded>  (248) 
mArh-5cms_N_13_N_β,5CB5_0_H_δ

>  <ref_pdb>  (248) 
nan

>  <smiles>  (248) 
NC1NCNC2NC(CCOP(=O)(O)OP(=O)(O)O)NC12

>  <submitter_email>  (248) 
nan

>  <disregarded>  (248) 


>  <LE>  (248) 
-0.660905

>  <submitter_institution>  (248) 
nan

>  <ref_mols>  (248) 
mArh-5cms_N_13_N,5CB5_0_H

>  <N_constrained_atoms>  (248) 
19.0

>  <ref_url>  (248) 
nan

>  <method>  (248) 
nan

>  <comRMSD>  (248) 
0.690481

>  <N_unconstrained_atoms>  (248) 
2.0

>  <∆∆G>  (248) 
-13.878999

>  <runtime>  (248) 
31.358199

>  <generation_date>  (248) 
nan

$$$$
mArh-5cms_H_7_H_β-mArh-3ew5_A_0_A_α
     RDKit          3D

 15 14  0  0  0  0  0  0  0  0999 V2000
   -1.3330   21.1800   -7.8510 O   0  0  0  0  0  0  0  0  0  0  0  0
   -0.4460   19.7740   -7.6980 P   0  0  0  0  0  0  0  0  0  0  0  0
   -1.7160   18.8450   -7.5000 O   0  0  0  0  0  0  0  0  0  0  0  0
   -2.6890   21.1180   -7.8830 C   0  0  0  0  0  0  0  0  0  0  0  0
    0.0580   19.2920   -6.3740 O   0  0  0  0  0  0  0  0  0  0  0  0
    0.0370   18.8000   -9.0000 O   0  0  0  0  0  0  0  0  0  0  0  0
    0.7360   20.5150   -7.8010 O   0  0  0  0  0  0  0  0  0  0  0  0
   -3.4810   22.2140   -7.2260 C   0  0  2  0  0  0  0  0  0  0  0  0
   -1.8930   17.9260   -6.1270 P   0  0  0  0  0  0  0  0  0  0  0  0
   -4.8370   22.3650   -7.8630 C   0  0  0  0  0  0  0  0  0  0  0  0
   -2.8400   23.4470   -7.1110 O   0  0  0  0  0  0  0  0  0  0  0  0
   -0.5660   16.9710   -5.7830 O   0  0  0  0  0  0  0  0  0  0  0  0
   -3.0540   17.0040   -6.3660 O   0  0  0  0  0  0  0  0  0  0  0  0
   -2.1040   18.9600   -4.8240 O   0  0  0  0  0  0  0  0  0  0  0  0
   -5.8490   22.0360   -6.9540 O   0  0  0  0  0  0  0  0  0  0  0  0
  1  2  1  0
  2  3  1  0
  1  4  1  0
  2  5  2  0
  2  6  1  0
  2  7  2  0
  4  8  1  0
  3  9  1  0
  8 10  1  0
  8 11  1  6
  9 12  1  0
  9 13  2  0
  9 14  1  0
 10 15  1  0
M  END
>  <%Rank>  (249) 
18.931298

>  <N_hits>  (249) 
2

>  <submitter_name>  (249) 
nan

>  <original SMILES>  (249) 
nan

>  <∆G_unbound>  (249) 
3.03456

>  <∆G_bound>  (249) 
-9.206868

>  <regarded>  (249) 
mArh-5cms_H_7_H_β,mArh-3ew5_A_0_A_α

>  <ref_pdb>  (249) 
nan

>  <smiles>  (249) 
O=P(O)(O)OP(=O)(=O)(O)OC[C@@H](O)CO

>  <submitter_email>  (249) 
nan

>  <disregarded>  (249) 


>  <LE>  (249) 
-0.816095

>  <submitter_institution>  (249) 
nan

>  <ref_mols>  (249) 
mArh-5cms_H_7_H,mArh-3ew5_A_0_A

>  <N_constrained_atoms>  (249) 
15.0

>  <ref_url>  (249) 
nan

>  <method>  (249) 
nan

>  <comRMSD>  (249) 
0.732903

>  <N_unconstrained_atoms>  (249) 
0.0

>  <∆∆G>  (249) 
-12.241428

>  <runtime>  (249) 
38.725026

>  <generation_date>  (249) 
nan

$$$$
mArh-5cms_N_13_N_α-mArh-5cb5_H_0_H_γ
     RDKit          3D

 24 25  0  0  0  0  0  0  0  0999 V2000
   -2.1640   23.2280   -8.8910 C   0  0  0  0  0  0  0  0  0  0  0  0
   -2.6330   22.1530   -9.8480 C   0  0  1  0  0  0  0  0  0  0  0  0
   -3.9680   21.8380   -9.4810 O   0  0  0  0  0  0  0  0  0  0  0  0
   -2.7450   22.6230  -11.2770 C   0  0  2  0  0  0  0  0  0  0  0  0
   -1.6050   23.2860  -11.8040 O   0  0  0  0  0  0  0  0  0  0  0  0
   -4.7170   22.9680   -9.9230 C   0  0  2  0  0  0  0  0  0  0  0  0
   -3.9310   23.5620  -11.1310 C   0  0  2  0  0  0  0  0  0  0  0  0
   -4.7930   23.8280   -8.7840 O   0  0  0  0  0  0  0  0  0  0  0  0
   -4.6600   23.6540  -12.3470 O   0  0  0  0  0  0  0  0  0  0  0  0
   -5.2600   23.1470   -7.6100 C   0  0  0  0  0  0  0  0  0  0  0  0
   -4.1070   22.7380   -6.6750 C   0  0  0  0  0  0  0  0  0  0  0  0
   -4.2390   21.3520   -6.0040 C   0  0  0  0  0  0  0  0  0  0  0  0
   -3.1600   20.3070   -6.3580 C   0  0  0  0  0  0  0  0  0  0  0  0
   -2.2730   19.9070   -5.2190 C   0  0  0  0  0  0  0  0  0  0  0  0
   -1.7690   18.4350   -5.2020 C   0  0  0  0  0  0  0  0  0  0  0  0
   -0.2820   18.2190   -4.8450 C   0  0  0  0  0  0  0  0  0  0  0  0
    0.3510   16.9470   -5.3870 C   0  0  0  0  0  0  0  0  0  0  0  0
    0.6170   15.7860   -4.4210 C   0  0  1  0  0  0  0  0  0  0  0  0
   -0.0450   15.9550   -3.1600 O   0  0  0  0  0  0  0  0  0  0  0  0
    0.1290   14.4540   -5.0080 C   0  0  1  0  0  0  0  0  0  0  0  0
    1.1340   13.4550   -5.0910 O   0  0  0  0  0  0  0  0  0  0  0  0
   -0.6360   14.6960   -2.7840 C   0  0  0  0  0  0  0  0  0  0  0  0
   -0.9680   13.9850   -4.0770 C   0  0  2  0  0  0  0  0  0  0  0  0
   -0.8220   12.5720   -3.9410 O   0  0  0  0  0  0  0  0  0  0  0  0
  2  1  1  1
  2  3  1  0
  2  4  1  0
  4  5  1  1
  3  6  1  0
  4  7  1  0
  6  7  1  0
  6  8  1  1
  7  9  1  6
  8 10  1  0
 10 11  1  0
 11 12  1  0
 12 13  1  0
 13 14  1  0
 14 15  1  0
 15 16  1  0
 16 17  1  0
 18 17  1  6
 18 19  1  0
 18 20  1  0
 20 21  1  1
 19 22  1  0
 20 23  1  0
 22 23  1  0
 23 24  1  1
M  END
>  <%Rank>  (250) 
19.007634

>  <N_hits>  (250) 
2

>  <submitter_name>  (250) 
nan

>  <original SMILES>  (250) 
nan

>  <∆G_unbound>  (250) 
0.119426

>  <∆G_bound>  (250) 
-11.524215

>  <regarded>  (250) 
mArh-5cms_N_13_N_α,mArh-5cb5_H_0_H_γ

>  <ref_pdb>  (250) 
nan

>  <smiles>  (250) 
CC1OC(OCCCCCCCCC2OCC(O)C2O)C(O)C1O

>  <submitter_email>  (250) 
nan

>  <disregarded>  (250) 


>  <LE>  (250) 
-0.485152

>  <submitter_institution>  (250) 
nan

>  <ref_mols>  (250) 
mArh-5cms_N_13_N,mArh-5cb5_H_0_H

>  <N_constrained_atoms>  (250) 
17.0

>  <ref_url>  (250) 
nan

>  <method>  (250) 
nan

>  <comRMSD>  (250) 
0.408061

>  <N_unconstrained_atoms>  (250) 
7.0

>  <∆∆G>  (250) 
-11.643641

>  <runtime>  (250) 
47.489594

>  <generation_date>  (250) 
nan

$$$$
mArh-4iqy_A_0_A_γ-mArh-EU0481_0_A_α
     RDKit          3D

 22 24  0  0  0  0  0  0  0  0999 V2000
   -0.7880   12.3400   -4.1960 O   0  0  0  0  0  0  0  0  0  0  0  0
   -0.1200   13.5330   -3.8060 C   0  0  2  0  0  0  0  0  0  0  0  0
   -1.0530   14.6490   -3.4480 C   0  0  1  0  0  0  0  0  0  0  0  0
    0.6330   14.2070   -4.9550 C   0  0  2  0  0  0  0  0  0  0  0  0
    2.0190   14.1210   -4.6230 O   0  0  0  0  0  0  0  0  0  0  0  0
   -1.8750   14.5620   -2.2190 C   0  0  0  0  0  0  0  0  0  0  0  0
   -0.2740   15.8190   -3.5210 O   0  0  0  0  0  0  0  0  0  0  0  0
    0.0820   15.6540   -4.8890 C   0  0  1  0  0  0  0  0  0  0  0  0
    0.9800   16.7980   -5.2850 C   0  0  0  0  0  0  0  0  0  0  0  0
   -3.2700   15.0670   -2.4920 C   0  0  0  0  0  0  0  0  0  0  0  0
   -4.0850   15.0130   -1.2850 C   0  0  0  0  0  0  0  0  0  0  0  0
   -3.4440   15.0850   -0.0510 C   0  0  0  0  0  0  0  0  0  0  0  0
   -5.4590   14.8840   -1.3740 C   0  0  0  0  0  0  0  0  0  0  0  0
   -6.2290   14.8210   -0.2500 C   0  0  0  0  0  0  0  0  0  0  0  0
   -4.1950   15.0270    1.0960 C   0  0  0  0  0  0  0  0  0  0  0  0
   -7.5570   14.6950   -0.3760 N   0  0  0  0  0  0  0  0  0  0  0  0
   -5.5810   14.8960    0.9980 C   0  0  0  0  0  0  0  0  0  0  0  0
   -8.2860   14.6440    0.7560 C   0  0  0  0  0  0  0  0  0  0  0  0
   -6.3690   14.8410    2.1340 C   0  0  0  0  0  0  0  0  0  0  0  0
   -7.7480   14.7150    2.0290 C   0  0  0  0  0  0  0  0  0  0  0  0
   -8.6030   14.6650    3.2500 C   0  0  0  0  0  0  0  0  0  0  0  0
   -8.3060   13.4970    4.0630 N   0  0  0  0  0  0  0  0  0  0  0  0
  2  1  1  6
  2  3  1  0
  2  4  1  0
  4  5  1  1
  3  6  1  1
  3  7  1  0
  4  8  1  0
  7  8  1  0
  8  9  1  1
  6 10  1  0
 10 11  1  0
 11 12  2  0
 11 13  1  0
 13 14  2  0
 12 15  1  0
 14 16  1  0
 14 17  1  0
 15 17  2  0
 16 18  2  0
 17 19  1  0
 18 20  1  0
 19 20  2  0
 20 21  1  0
 21 22  1  0
M  END
>  <%Rank>  (251) 
19.083969

>  <N_hits>  (251) 
2

>  <submitter_name>  (251) 
nan

>  <original SMILES>  (251) 
nan

>  <∆G_unbound>  (251) 
0.134297

>  <∆G_bound>  (251) 
-6.31588

>  <regarded>  (251) 
mArh-4iqy_A_0_A_γ,mArh-EU0481_0_A_α

>  <ref_pdb>  (251) 
nan

>  <smiles>  (251) 
CC1OC(CCc2ccc3cc(CN)cnc3c2)C(O)C1O

>  <submitter_email>  (251) 
nan

>  <disregarded>  (251) 


>  <LE>  (251) 
-0.29319

>  <submitter_institution>  (251) 
nan

>  <ref_mols>  (251) 
mArh-4iqy_A_0_A,mArh-EU0481_0_A

>  <N_constrained_atoms>  (251) 
20.0

>  <ref_url>  (251) 
nan

>  <method>  (251) 
nan

>  <comRMSD>  (251) 
0.529258

>  <N_unconstrained_atoms>  (251) 
2.0

>  <∆∆G>  (251) 
-6.450177

>  <runtime>  (251) 
49.600527

>  <generation_date>  (251) 
nan

$$$$
1SPV_0_A_α-5CMS_0_P_δ
     RDKit          3D

 26 28  0  0  0  0  0  0  0  0999 V2000
    1.0920   20.7400   -7.5770 O   0  0  0  0  0  0  0  0  0  0  0  0
   -0.0360   19.5960   -7.6760 S   0  0  0  0  0  0  0  0  0  0  0  0
    0.2560   18.5520   -8.8430 O   0  0  0  0  0  0  0  0  0  0  0  0
   -0.3590   18.8130   -6.3000 O   0  0  0  0  0  0  0  0  0  0  0  0
   -1.5590   20.3200   -8.1950 C   0  0  0  0  0  0  0  0  0  0  0  0
   -1.9360   21.6860   -7.6840 C   0  0  0  0  0  0  0  0  0  0  0  0
    0.6550   18.1210   -5.5580 C   0  0  0  0  0  0  0  0  0  0  0  0
    0.1680   16.7270   -5.1700 C   0  0  0  0  0  0  0  0  0  0  0  0
   -3.3990   21.8960   -7.7240 N   0  0  0  0  0  0  0  0  0  0  0  0
   -0.3940   16.6240   -3.7400 C   0  0  0  0  0  0  0  0  0  0  0  0
   -3.8690   22.4310   -9.0210 C   0  0  0  0  0  0  0  0  0  0  0  0
   -3.8060   22.8030   -6.6440 C   0  0  0  0  0  0  0  0  0  0  0  0
   -0.4190   15.1480   -3.2840 C   0  0  0  0  0  0  0  0  0  0  0  0
   -5.3800   22.6580   -9.0430 C   0  0  0  0  0  0  0  0  0  0  0  0
   -5.2780   23.1950   -6.6910 C   0  0  0  0  0  0  0  0  0  0  0  0
   -5.8000   23.5290   -7.9890 O   0  0  0  0  0  0  0  0  0  0  0  0
   -1.4560   14.8070   -2.3080 N   0  0  0  0  0  0  0  0  0  0  0  0
   -1.2480   14.9860   -0.8860 C   0  0  1  0  0  0  0  0  0  0  0  0
   -2.8300   15.2340   -2.6040 C   0  0  0  0  0  0  0  0  0  0  0  0
   -2.6640   14.7970   -0.3750 C   0  0  2  0  0  0  0  0  0  0  0  0
   -3.4520   15.5910   -1.3220 N   0  0  0  0  0  0  0  0  0  0  0  0
   -0.3150   14.0880   -0.2130 N   0  0  0  0  0  0  0  0  0  0  0  0
   -0.3260   14.3520    1.2230 C   0  0  0  0  0  0  0  0  0  0  0  0
   -2.5820   15.2800    1.0490 C   0  0  1  0  0  0  0  0  0  0  0  0
   -3.8510   15.3600    1.7520 N   0  0  0  0  0  0  0  0  0  0  0  0
   -1.6710   14.4570    1.7920 N   0  0  0  0  0  0  0  0  0  0  0  0
  2  1  1  0
  2  3  1  0
  2  4  1  0
  2  5  1  0
  5  6  1  0
  4  7  1  0
  7  8  1  0
  6  9  1  0
  8 10  1  0
  9 11  1  0
  9 12  1  0
 10 13  1  0
 11 14  1  0
 12 15  1  0
 14 16  1  0
 15 16  1  0
 13 17  1  0
 17 18  1  0
 17 19  1  0
 18 20  1  0
 19 21  1  0
 20 21  1  6
 18 22  1  1
 22 23  1  0
 20 24  1  0
 24 25  1  1
 23 26  1  0
 24 26  1  0
M  END
>  <%Rank>  (252) 
19.160305

>  <N_hits>  (252) 
2

>  <submitter_name>  (252) 
nan

>  <original SMILES>  (252) 
nan

>  <∆G_unbound>  (252) 
0.894227

>  <∆G_bound>  (252) 
-12.742804

>  <regarded>  (252) 
1SPV_0_A_α,5CMS_0_P_δ

>  <ref_pdb>  (252) 
nan

>  <smiles>  (252) 
NC1NCNC2C1NCN2CCCCOS(O)(O)CCN1CCOCC1

>  <submitter_email>  (252) 
nan

>  <disregarded>  (252) 


>  <LE>  (252) 
-0.524501

>  <submitter_institution>  (252) 
nan

>  <ref_mols>  (252) 
1SPV_0_A,5CMS_0_P

>  <N_constrained_atoms>  (252) 
22.0

>  <ref_url>  (252) 
nan

>  <method>  (252) 
nan

>  <comRMSD>  (252) 
0.639727

>  <N_unconstrained_atoms>  (252) 
4.0

>  <∆∆G>  (252) 
-13.637032

>  <runtime>  (252) 
51.315662

>  <generation_date>  (252) 
nan

$$$$
mArh-3q6z_0_A_γ-5DUS_0_A_β
     RDKit          3D

 16 16  0  0  0  0  0  0  0  0999 V2000
   -0.5230   12.2920   -4.1160 O   0  0  0  0  0  0  0  0  0  0  0  0
   -0.8060   13.6480   -4.1960 C   0  0  1  0  0  0  0  0  0  0  0  0
   -0.7720   14.3620   -2.8400 C   0  0  0  0  0  0  0  0  0  0  0  0
    0.2370   14.4310   -4.9310 C   0  0  2  0  0  0  0  0  0  0  0  0
    1.4640   14.1380   -4.3220 O   0  0  0  0  0  0  0  0  0  0  0  0
   -0.2310   15.6370   -3.1350 O   0  0  0  0  0  0  0  0  0  0  0  0
   -0.3670   15.7080   -4.5100 C   0  0  1  0  0  0  0  0  0  0  0  0
    0.0110   17.0440   -5.1590 C   0  0  0  0  0  0  0  0  0  0  0  0
   -1.4130   18.0290   -5.5030 P   0  0  0  0  0  0  0  0  0  0  0  0
   -0.8050   19.3100   -6.0800 O   0  0  0  0  0  0  0  0  0  0  0  0
   -2.3380   17.8950   -6.9310 O   0  0  0  0  0  0  0  0  0  0  0  0
   -2.0290   18.9930   -4.4040 O   0  0  0  0  0  0  0  0  0  0  0  0
   -0.1650   19.6320   -7.5040 P   0  0  0  0  0  0  0  0  0  0  0  0
   -1.4420   20.3050   -8.0280 O   0  0  0  0  0  0  0  0  0  0  0  0
    0.6310   21.0880   -7.7470 O   0  0  0  0  0  0  0  0  0  0  0  0
   -0.1180   18.4870   -8.6770 O   0  0  0  0  0  0  0  0  0  0  0  0
  2  1  1  1
  2  3  1  0
  2  4  1  0
  4  5  1  1
  3  6  1  0
  4  7  1  0
  6  7  1  0
  7  8  1  6
  8  9  1  0
  9 10  1  0
  9 11  1  0
  9 12  1  0
 10 13  1  0
 13 14  1  0
 13 15  1  0
 13 16  1  0
M  CHG  2  11  -1  15  -1
M  END
>  <%Rank>  (253) 
19.236641

>  <N_hits>  (253) 
2

>  <submitter_name>  (253) 
nan

>  <original SMILES>  (253) 
nan

>  <∆G_unbound>  (253) 
0.683631

>  <∆G_bound>  (253) 
-7.798968

>  <regarded>  (253) 
mArh-3q6z_0_A_γ,5DUS_0_A_β

>  <ref_pdb>  (253) 
nan

>  <smiles>  (253) 
[O-][PH](O)(O)O[PH]([O-])(O)CC1OCC(O)C1O

>  <submitter_email>  (253) 
nan

>  <disregarded>  (253) 


>  <LE>  (253) 
-0.530162

>  <submitter_institution>  (253) 
nan

>  <ref_mols>  (253) 
mArh-3q6z_0_A,5DUS_0_A

>  <N_constrained_atoms>  (253) 
16.0

>  <ref_url>  (253) 
nan

>  <method>  (253) 
nan

>  <comRMSD>  (253) 
0.6147

>  <N_unconstrained_atoms>  (253) 
0.0

>  <∆∆G>  (253) 
-8.4826

>  <runtime>  (253) 
28.048831

>  <generation_date>  (253) 
nan

$$$$
mArh-5cb5_B_0_B_α-mArh-5cb5_Q_0_Q_β
     RDKit          3D

 17 17  0  0  0  0  0  0  0  0999 V2000
   -1.9150   21.4730   -7.5380 C   0  0  0  0  0  0  0  0  0  0  0  0
   -0.5730   20.2910   -7.7900 P   0  0  2  0  0  0  0  0  0  0  0  0
   -0.5320   19.3230   -6.5390 O   0  0  0  0  0  0  0  0  0  0  0  0
   -2.9920   21.7860   -8.5850 C   0  0  1  0  0  0  0  0  0  0  0  0
    0.7610   20.9150   -7.9770 O   0  0  0  0  0  0  0  0  0  0  0  0
   -0.9260   19.1600   -8.8620 O   0  0  0  0  0  0  0  0  0  0  0  0
   -4.1990   21.1410   -8.2150 O   0  0  0  0  0  0  0  0  0  0  0  0
   -3.5090   23.2340   -8.5790 C   0  0  1  0  0  0  0  0  0  0  0  0
   -4.3640   23.4940   -9.6980 O   0  0  0  0  0  0  0  0  0  0  0  0
   -1.7120   18.3870   -6.0530 P   0  0  0  0  0  0  0  0  0  0  0  0
   -4.6110   21.8020   -7.0170 C   0  0  1  0  0  0  0  0  0  0  0  0
   -4.2950   23.2900   -7.2520 C   0  0  2  0  0  0  0  0  0  0  0  0
   -5.9670   21.5310   -6.7010 O   0  0  0  0  0  0  0  0  0  0  0  0
   -5.5180   24.0440   -7.3810 O   0  0  0  0  0  0  0  0  0  0  0  0
   -1.0010   17.1430   -5.3630 O   0  0  0  0  0  0  0  0  0  0  0  0
   -2.7560   17.9670   -7.0130 O   0  0  0  0  0  0  0  0  0  0  0  0
   -2.2460   19.2280   -4.8180 O   0  0  0  0  0  0  0  0  0  0  0  0
  1  2  1  0
  2  3  1  0
  4  1  1  1
  2  5  2  0
  2  6  1  6
  4  7  1  0
  4  8  1  0
  8  9  1  6
  3 10  1  0
  7 11  1  0
  8 12  1  0
 11 12  1  0
 11 13  1  6
 12 14  1  6
 10 15  1  0
 10 16  2  0
 10 17  1  0
M  END
>  <%Rank>  (254) 
19.312977

>  <N_hits>  (254) 
2

>  <submitter_name>  (254) 
nan

>  <original SMILES>  (254) 
nan

>  <∆G_unbound>  (254) 
1.703844

>  <∆G_bound>  (254) 
-11.425495

>  <regarded>  (254) 
mArh-5cb5_B_0_B_α,mArh-5cb5_Q_0_Q_β

>  <ref_pdb>  (254) 
nan

>  <smiles>  (254) 
O=P(O)(O)OP(=O)(O)CC1OC(O)C(O)C1O

>  <submitter_email>  (254) 
nan

>  <disregarded>  (254) 


>  <LE>  (254) 
-0.772314

>  <submitter_institution>  (254) 
nan

>  <ref_mols>  (254) 
mArh-5cb5_B_0_B,mArh-5cb5_Q_0_Q

>  <N_constrained_atoms>  (254) 
17.0

>  <ref_url>  (254) 
nan

>  <method>  (254) 
nan

>  <comRMSD>  (254) 
0.759979

>  <N_unconstrained_atoms>  (254) 
0.0

>  <∆∆G>  (254) 
-13.129339

>  <runtime>  (254) 
34.617763

>  <generation_date>  (254) 
nan

$$$$
mArh-6mea_B_0_B_β-mArh-5cms_A_0_A_β
     RDKit          3D

  9  8  0  0  0  0  0  0  0  0999 V2000
   -1.5290   20.3230   -8.0160 O   0  0  0  0  0  0  0  0  0  0  0  0
   -0.0970   19.7330   -7.6230 P   0  0  0  0  0  0  0  0  0  0  0  0
   -0.2830   18.8770   -6.3330 O   0  0  0  0  0  0  0  0  0  0  0  0
    0.9850   20.7600   -7.5920 O   0  0  0  0  0  0  0  0  0  0  0  0
    0.1180   18.6200   -8.7550 O   0  0  0  0  0  0  0  0  0  0  0  0
   -1.5850   18.1440   -5.8500 P   0  0  0  0  0  0  0  0  0  0  0  0
   -1.0670   16.8000   -5.1750 O   0  0  0  0  0  0  0  0  0  0  0  0
   -2.6190   17.9350   -6.8910 O   0  0  0  0  0  0  0  0  0  0  0  0
   -2.0350   19.0500   -4.6340 O   0  0  0  0  0  0  0  0  0  0  0  0
  1  2  1  0
  2  3  1  0
  2  4  2  0
  2  5  1  0
  3  6  1  0
  6  7  1  0
  6  8  2  0
  6  9  1  0
M  END
>  <%Rank>  (255) 
19.389313

>  <N_hits>  (255) 
2

>  <submitter_name>  (255) 
nan

>  <original SMILES>  (255) 
nan

>  <∆G_unbound>  (255) 
0.687887

>  <∆G_bound>  (255) 
-8.36929

>  <regarded>  (255) 
mArh-6mea_B_0_B_β,mArh-5cms_A_0_A_β

>  <ref_pdb>  (255) 
nan

>  <smiles>  (255) 
O=P(O)(O)OP(=O)(O)O

>  <submitter_email>  (255) 
nan

>  <disregarded>  (255) 


>  <LE>  (255) 
-1.006353

>  <submitter_institution>  (255) 
nan

>  <ref_mols>  (255) 
mArh-6mea_B_0_B,mArh-5cms_A_0_A

>  <N_constrained_atoms>  (255) 
9.0

>  <ref_url>  (255) 
nan

>  <method>  (255) 
nan

>  <comRMSD>  (255) 
0.654489

>  <N_unconstrained_atoms>  (255) 
0.0

>  <∆∆G>  (255) 
-9.057177

>  <runtime>  (255) 
24.074027

>  <generation_date>  (255) 
nan

$$$$
mArh-5cms_L_11_L_β-5CB5_0_F_δ
     RDKit          3D

 21 22  0  0  0  0  0  0  0  0999 V2000
   -1.2880   20.6430   -8.7040 O   0  0  0  0  0  0  0  0  0  0  0  0
   -0.3880   19.7550   -7.7480 P   0  0  0  0  0  0  0  0  0  0  0  0
   -1.2580   19.4800   -6.4440 O   0  0  0  0  0  0  0  0  0  0  0  0
    0.9330   20.3800   -7.5100 O   0  0  0  0  0  0  0  0  0  0  0  0
   -0.3060   18.4420   -8.6390 O   0  0  0  0  0  0  0  0  0  0  0  0
   -1.7230   18.0290   -6.0390 P   0  0  2  0  0  0  0  0  0  0  0  0
   -0.3710   17.2060   -6.1680 O   0  0  0  0  0  0  0  0  0  0  0  0
   -2.8090   17.4880   -6.8810 O   0  0  0  0  0  0  0  0  0  0  0  0
   -1.9440   17.9300   -4.4690 O   0  0  0  0  0  0  0  0  0  0  0  0
   -1.5860   16.6730   -3.9010 C   0  0  0  0  0  0  0  0  0  0  0  0
   -2.7850   15.7430   -3.7150 C   0  0  0  0  0  0  0  0  0  0  0  0
   -2.6950   14.7040   -2.5910 C   0  0  1  0  0  0  0  0  0  0  0  0
   -1.3010   14.3680   -2.2690 N   0  0  0  0  0  0  0  0  0  0  0  0
   -3.3680   15.0740   -1.3400 N   0  0  0  0  0  0  0  0  0  0  0  0
   -1.1280   14.9380   -0.9560 C   0  0  1  0  0  0  0  0  0  0  0  0
   -2.4360   14.5820   -0.3280 C   0  0  1  0  0  0  0  0  0  0  0  0
   -0.0060   14.3340   -0.3100 N   0  0  0  0  0  0  0  0  0  0  0  0
   -2.3790   15.2810    0.9970 C   0  0  1  0  0  0  0  0  0  0  0  0
   -3.5770   15.1320    1.7940 N   0  0  0  0  0  0  0  0  0  0  0  0
   -0.0430   14.4940    1.1430 C   0  0  0  0  0  0  0  0  0  0  0  0
   -1.3390   14.7030    1.7670 N   0  0  0  0  0  0  0  0  0  0  0  0
  1  2  1  0
  2  3  1  0
  2  4  2  0
  2  5  1  0
  3  6  1  0
  6  7  1  1
  6  8  2  0
  6  9  1  0
  9 10  1  0
 10 11  1  0
 12 11  1  6
 12 13  1  0
 12 14  1  0
 15 13  1  6
 16 14  1  6
 15 16  1  0
 15 17  1  0
 16 18  1  0
 18 19  1  1
 17 20  1  0
 18 21  1  0
 20 21  1  0
M  END
>  <%Rank>  (256) 
19.465649

>  <N_hits>  (256) 
2

>  <submitter_name>  (256) 
nan

>  <original SMILES>  (256) 
nan

>  <∆G_unbound>  (256) 
4.831508

>  <∆G_bound>  (256) 
-8.657281

>  <regarded>  (256) 
mArh-5cms_L_11_L_β,5CB5_0_F_δ

>  <ref_pdb>  (256) 
nan

>  <smiles>  (256) 
NC1NCNC2NC(CCOP(=O)(O)OP(=O)(O)O)NC12

>  <submitter_email>  (256) 
nan

>  <disregarded>  (256) 


>  <LE>  (256) 
-0.642323

>  <submitter_institution>  (256) 
nan

>  <ref_mols>  (256) 
mArh-5cms_L_11_L,5CB5_0_F

>  <N_constrained_atoms>  (256) 
19.0

>  <ref_url>  (256) 
nan

>  <method>  (256) 
nan

>  <comRMSD>  (256) 
0.685496

>  <N_unconstrained_atoms>  (256) 
2.0

>  <∆∆G>  (256) 
-13.488789

>  <runtime>  (256) 
27.557466

>  <generation_date>  (256) 
nan

$$$$
5CB5_0_H_α-5CB5_0_F_γ
     RDKit          3D

 22 23  0  0  0  0  0  0  0  0999 V2000
   -2.1890   21.5590   -8.9350 C   0  0  0  0  0  0  0  0  0  0  0  0
   -3.3090   22.0190   -8.0650 C   0  0  2  0  0  0  0  0  0  0  0  0
   -4.3460   21.0560   -8.1850 O   0  0  0  0  0  0  0  0  0  0  0  0
   -4.0000   23.3230   -8.4320 C   0  0  1  0  0  0  0  0  0  0  0  0
   -4.3040   23.3980   -9.8380 O   0  0  0  0  0  0  0  0  0  0  0  0
   -5.3800   21.6210   -7.4120 C   0  0  2  0  0  0  0  0  0  0  0  0
   -5.3240   23.1530   -7.6820 C   0  0  1  0  0  0  0  0  0  0  0  0
   -5.1390   21.3390   -6.0320 O   0  0  0  0  0  0  0  0  0  0  0  0
   -5.4320   23.9820   -6.5140 O   0  0  0  0  0  0  0  0  0  0  0  0
   -3.7250   21.3150   -5.7020 C   0  0  0  0  0  0  0  0  0  0  0  0
   -2.9780   20.0100   -6.0460 C   0  0  0  0  0  0  0  0  0  0  0  0
   -1.5890   20.1230   -6.6450 C   0  0  0  0  0  0  0  0  0  0  0  0
   -0.8840   18.7400   -6.7210 C   0  0  0  0  0  0  0  0  0  0  0  0
   -0.7110   17.9520   -5.4020 C   0  0  0  0  0  0  0  0  0  0  0  0
    0.6700   17.2630   -5.2990 C   0  0  0  0  0  0  0  0  0  0  0  0
    0.7820   15.9430   -4.4820 C   0  0  1  0  0  0  0  0  0  0  0  0
    0.0180   16.0610   -3.2620 O   0  0  0  0  0  0  0  0  0  0  0  0
    0.3200   14.6170   -5.1380 C   0  0  1  0  0  0  0  0  0  0  0  0
    1.2330   13.5310   -5.0980 O   0  0  0  0  0  0  0  0  0  0  0  0
   -0.6620   14.8230   -3.0400 C   0  0  0  0  0  0  0  0  0  0  0  0
   -0.9750   14.2820   -4.4120 C   0  0  2  0  0  0  0  0  0  0  0  0
   -1.2390   12.8830   -4.4450 O   0  0  0  0  0  0  0  0  0  0  0  0
  2  1  1  6
  2  3  1  0
  2  4  1  0
  4  5  1  6
  3  6  1  0
  4  7  1  0
  6  7  1  0
  6  8  1  1
  7  9  1  1
  8 10  1  0
 10 11  1  0
 11 12  1  0
 12 13  1  0
 13 14  1  0
 14 15  1  0
 16 15  1  6
 16 17  1  0
 16 18  1  0
 18 19  1  1
 17 20  1  0
 18 21  1  0
 20 21  1  0
 21 22  1  1
M  END
>  <%Rank>  (257) 
19.541985

>  <N_hits>  (257) 
2

>  <submitter_name>  (257) 
nan

>  <original SMILES>  (257) 
nan

>  <∆G_unbound>  (257) 
0.187336

>  <∆G_bound>  (257) 
-10.296738

>  <regarded>  (257) 
5CB5_0_H_α,5CB5_0_F_γ

>  <ref_pdb>  (257) 
nan

>  <smiles>  (257) 
CC1OC(OCCCCCCC2OCC(O)C2O)C(O)C1O

>  <submitter_email>  (257) 
nan

>  <disregarded>  (257) 


>  <LE>  (257) 
-0.476549

>  <submitter_institution>  (257) 
nan

>  <ref_mols>  (257) 
5CB5_0_H,5CB5_0_F

>  <N_constrained_atoms>  (257) 
17.0

>  <ref_url>  (257) 
nan

>  <method>  (257) 
nan

>  <comRMSD>  (257) 
0.46821

>  <N_unconstrained_atoms>  (257) 
5.0

>  <∆∆G>  (257) 
-10.484074

>  <runtime>  (257) 
43.392539

>  <generation_date>  (257) 
nan

$$$$
mArh-5cms_I_8_I_β-mArh-6woj_D_0_D_α
     RDKit          3D

 17 17  0  0  0  0  0  0  0  0999 V2000
   -1.4560   21.4570   -8.2130 O   0  0  0  0  0  0  0  0  0  0  0  0
   -0.7580   20.0800   -7.6940 P   0  0  2  0  0  0  0  0  0  0  0  0
   -1.5820   19.6180   -6.4200 O   0  0  0  0  0  0  0  0  0  0  0  0
   -2.8820   21.7800   -8.1870 C   0  0  1  0  0  0  0  0  0  0  0  0
    0.7090   20.1280   -7.4120 O   0  0  0  0  0  0  0  0  0  0  0  0
   -1.0310   18.9020   -8.7330 O   0  0  0  0  0  0  0  0  0  0  0  0
   -3.6250   21.0400   -7.2010 O   0  0  0  0  0  0  0  0  0  0  0  0
   -3.2490   23.2830   -7.9000 C   0  0  1  0  0  0  0  0  0  0  0  0
   -1.7770   18.0760   -6.1380 P   0  0  0  0  0  0  0  0  0  0  0  0
   -4.0110   23.9040   -8.9630 O   0  0  0  0  0  0  0  0  0  0  0  0
   -4.7490   21.8610   -6.8780 C   0  0  2  0  0  0  0  0  0  0  0  0
   -4.1120   23.2070   -6.6290 C   0  0  2  0  0  0  0  0  0  0  0  0
   -0.3200   17.4500   -6.2080 O   0  0  0  0  0  0  0  0  0  0  0  0
   -2.7950   17.3720   -6.9270 O   0  0  0  0  0  0  0  0  0  0  0  0
   -2.0400   17.9790   -4.5780 O   0  0  0  0  0  0  0  0  0  0  0  0
   -5.3990   21.4260   -5.6910 O   0  0  0  0  0  0  0  0  0  0  0  0
   -5.1310   24.2220   -6.5320 O   0  0  0  0  0  0  0  0  0  0  0  0
  1  2  1  0
  2  3  1  0
  4  1  1  1
  2  5  2  0
  2  6  1  6
  4  7  1  0
  4  8  1  0
  3  9  1  0
  8 10  1  6
  7 11  1  0
  8 12  1  0
 11 12  1  0
  9 13  1  0
  9 14  2  0
  9 15  1  0
 11 16  1  1
 12 17  1  6
M  END
>  <%Rank>  (258) 
19.618321

>  <N_hits>  (258) 
2

>  <submitter_name>  (258) 
nan

>  <original SMILES>  (258) 
nan

>  <∆G_unbound>  (258) 
1.974322

>  <∆G_bound>  (258) 
-9.783389

>  <regarded>  (258) 
mArh-5cms_I_8_I_β,mArh-6woj_D_0_D_α

>  <ref_pdb>  (258) 
nan

>  <smiles>  (258) 
O=P(O)(O)OP(=O)(O)OC1OC(O)C(O)C1O

>  <submitter_email>  (258) 
nan

>  <disregarded>  (258) 


>  <LE>  (258) 
-0.69163

>  <submitter_institution>  (258) 
nan

>  <ref_mols>  (258) 
mArh-5cms_I_8_I,mArh-6woj_D_0_D

>  <N_constrained_atoms>  (258) 
17.0

>  <ref_url>  (258) 
nan

>  <method>  (258) 
nan

>  <comRMSD>  (258) 
0.722888

>  <N_unconstrained_atoms>  (258) 
0.0

>  <∆∆G>  (258) 
-11.757711

>  <runtime>  (258) 
37.636769

>  <generation_date>  (258) 
nan

$$$$
mArh-5cms_I_8_I_β-6WOJ_0_A_α
     RDKit          3D

 17 17  0  0  0  0  0  0  0  0999 V2000
   -1.4720   21.4190   -8.2590 O   0  0  0  0  0  0  0  0  0  0  0  0
   -0.7640   20.0630   -7.6930 P   0  0  2  0  0  0  0  0  0  0  0  0
   -1.5970   19.6090   -6.4260 O   0  0  0  0  0  0  0  0  0  0  0  0
   -2.8970   21.7460   -8.2060 C   0  0  1  0  0  0  0  0  0  0  0  0
    0.7010   20.1370   -7.4090 O   0  0  0  0  0  0  0  0  0  0  0  0
   -1.0200   18.8450   -8.6900 O   0  0  0  0  0  0  0  0  0  0  0  0
   -3.6050   21.0140   -7.1920 O   0  0  0  0  0  0  0  0  0  0  0  0
   -3.2690   23.2520   -7.9370 C   0  0  1  0  0  0  0  0  0  0  0  0
   -1.7760   18.0620   -6.1470 P   0  0  0  0  0  0  0  0  0  0  0  0
   -4.0610   23.8520   -8.9860 O   0  0  0  0  0  0  0  0  0  0  0  0
   -4.7210   21.8310   -6.8310 C   0  0  2  0  0  0  0  0  0  0  0  0
   -4.1030   23.1960   -6.6470 C   0  0  2  0  0  0  0  0  0  0  0  0
   -0.3230   17.4350   -6.2600 O   0  0  0  0  0  0  0  0  0  0  0  0
   -2.8220   17.3510   -6.9000 O   0  0  0  0  0  0  0  0  0  0  0  0
   -1.9680   17.9790   -4.5890 O   0  0  0  0  0  0  0  0  0  0  0  0
   -5.2830   21.4090   -5.5980 O   0  0  0  0  0  0  0  0  0  0  0  0
   -5.1470   24.1930   -6.5700 O   0  0  0  0  0  0  0  0  0  0  0  0
  1  2  1  0
  2  3  1  0
  4  1  1  1
  2  5  2  0
  2  6  1  6
  4  7  1  0
  4  8  1  0
  3  9  1  0
  8 10  1  6
  7 11  1  0
  8 12  1  0
 11 12  1  0
  9 13  1  0
  9 14  2  0
  9 15  1  0
 11 16  1  1
 12 17  1  6
M  END
>  <%Rank>  (259) 
19.694656

>  <N_hits>  (259) 
2

>  <submitter_name>  (259) 
nan

>  <original SMILES>  (259) 
nan

>  <∆G_unbound>  (259) 
1.974322

>  <∆G_bound>  (259) 
-9.93764

>  <regarded>  (259) 
mArh-5cms_I_8_I_β,6WOJ_0_A_α

>  <ref_pdb>  (259) 
nan

>  <smiles>  (259) 
O=P(O)(O)OP(=O)(O)OC1OC(O)C(O)C1O

>  <submitter_email>  (259) 
nan

>  <disregarded>  (259) 


>  <LE>  (259) 
-0.700704

>  <submitter_institution>  (259) 
nan

>  <ref_mols>  (259) 
mArh-5cms_I_8_I,6WOJ_0_A

>  <N_constrained_atoms>  (259) 
17.0

>  <ref_url>  (259) 
nan

>  <method>  (259) 
nan

>  <comRMSD>  (259) 
0.727984

>  <N_unconstrained_atoms>  (259) 
0.0

>  <∆∆G>  (259) 
-11.911962

>  <runtime>  (259) 
35.89552

>  <generation_date>  (259) 
nan

$$$$
1HJZ_0_A_α-5CB5_0_I_β
     RDKit          3D

 16 16  0  0  0  0  0  0  0  0999 V2000
    1.1670   21.1090   -7.5210 O   0  0  0  0  0  0  0  0  0  0  0  0
   -0.3600   19.9360   -7.7890 S   0  0  0  0  0  0  0  0  0  0  0  0
    0.1970   18.9240   -8.8540 O   0  0  0  0  0  0  0  0  0  0  0  0
   -0.5270   19.3860   -6.4690 O   0  0  0  0  0  0  0  0  0  0  0  0
   -1.4150   21.1260   -8.3030 C   0  0  0  0  0  0  0  0  0  0  0  0
   -2.1550   21.8580   -7.2330 C   0  0  0  0  0  0  0  0  0  0  0  0
   -1.2760   18.0130   -6.0910 P   0  0  0  0  0  0  0  0  0  0  0  0
   -0.5130   16.8670   -5.2150 O   0  0  0  0  0  0  0  0  0  0  0  0
   -2.7010   17.6040   -6.8860 O   0  0  0  0  0  0  0  0  0  0  0  0
   -2.0920   18.6620   -4.9940 O   0  0  0  0  0  0  0  0  0  0  0  0
   -3.4570   22.3290   -7.6020 N   0  0  0  0  0  0  0  0  0  0  0  0
   -3.5160   22.8250   -8.9710 C   0  0  0  0  0  0  0  0  0  0  0  0
   -3.7720   23.5190   -6.8050 C   0  0  0  0  0  0  0  0  0  0  0  0
   -5.0080   23.1180   -9.2190 C   0  0  0  0  0  0  0  0  0  0  0  0
   -5.2370   23.8070   -7.0520 C   0  0  0  0  0  0  0  0  0  0  0  0
   -5.4680   24.0550   -8.3610 O   0  0  0  0  0  0  0  0  0  0  0  0
  2  1  1  0
  2  3  1  0
  2  4  1  0
  2  5  1  0
  5  6  1  0
  4  7  1  0
  7  8  1  0
  7  9  1  0
  7 10  1  0
  6 11  1  0
 11 12  1  0
 11 13  1  0
 12 14  1  0
 13 15  1  0
 14 16  1  0
 15 16  1  0
M  CHG  1   9  -1
M  END
>  <%Rank>  (260) 
19.770992

>  <N_hits>  (260) 
2

>  <submitter_name>  (260) 
nan

>  <original SMILES>  (260) 
nan

>  <∆G_unbound>  (260) 
1.358853

>  <∆G_bound>  (260) 
-9.756856

>  <regarded>  (260) 
1HJZ_0_A_α,5CB5_0_I_β

>  <ref_pdb>  (260) 
nan

>  <smiles>  (260) 
[O-][PH](O)(O)OS(O)(O)CCN1CCOCC1

>  <submitter_email>  (260) 
nan

>  <disregarded>  (260) 


>  <LE>  (260) 
-0.694732

>  <submitter_institution>  (260) 
nan

>  <ref_mols>  (260) 
1HJZ_0_A,5CB5_0_I

>  <N_constrained_atoms>  (260) 
16.0

>  <ref_url>  (260) 
nan

>  <method>  (260) 
nan

>  <comRMSD>  (260) 
0.702915

>  <N_unconstrained_atoms>  (260) 
0.0

>  <∆∆G>  (260) 
-11.115709

>  <runtime>  (260) 
31.243536

>  <generation_date>  (260) 
nan

$$$$
mArh-6mea_B_0_B_β-mArh-5cb5_Q_0_Q_α
     RDKit          3D

 17 17  0  0  0  0  0  0  0  0999 V2000
   -2.3570   20.9800   -7.5850 O   0  0  0  0  0  0  0  0  0  0  0  0
   -0.8550   20.3200   -7.7220 P   0  0  2  0  0  0  0  0  0  0  0  0
   -0.6010   19.5150   -6.3830 O   0  0  0  0  0  0  0  0  0  0  0  0
   -3.1330   21.7630   -8.5350 C   0  0  1  0  0  0  0  0  0  0  0  0
    0.2980   21.2500   -7.9080 O   0  0  0  0  0  0  0  0  0  0  0  0
   -0.8300   19.0540   -8.7100 O   0  0  0  0  0  0  0  0  0  0  0  0
   -4.4820   21.2930   -8.5640 O   0  0  0  0  0  0  0  0  0  0  0  0
   -3.4320   23.2480   -8.1930 C   0  0  1  0  0  0  0  0  0  0  0  0
   -1.4920   18.2710   -5.9680 P   0  0  0  0  0  0  0  0  0  0  0  0
   -4.1760   23.9290   -9.2320 O   0  0  0  0  0  0  0  0  0  0  0  0
   -5.2640   22.0380   -7.6080 C   0  0  2  0  0  0  0  0  0  0  0  0
   -4.3330   23.0500   -6.9880 C   0  0  2  0  0  0  0  0  0  0  0  0
   -0.4630   17.0870   -5.7230 O   0  0  0  0  0  0  0  0  0  0  0  0
   -2.6480   17.9100   -6.8110 O   0  0  0  0  0  0  0  0  0  0  0  0
   -1.8260   18.6590   -4.4730 O   0  0  0  0  0  0  0  0  0  0  0  0
   -5.7510   21.2320   -6.5480 O   0  0  0  0  0  0  0  0  0  0  0  0
   -5.1310   24.1830   -6.5970 O   0  0  0  0  0  0  0  0  0  0  0  0
  1  2  1  0
  2  3  1  0
  4  1  1  1
  2  5  2  0
  2  6  1  6
  4  7  1  0
  4  8  1  0
  3  9  1  0
  8 10  1  6
  7 11  1  0
  8 12  1  0
 11 12  1  0
  9 13  1  0
  9 14  2  0
  9 15  1  0
 11 16  1  1
 12 17  1  6
M  END
>  <%Rank>  (261) 
19.847328

>  <N_hits>  (261) 
2

>  <submitter_name>  (261) 
nan

>  <original SMILES>  (261) 
nan

>  <∆G_unbound>  (261) 
1.974322

>  <∆G_bound>  (261) 
-10.536741

>  <regarded>  (261) 
mArh-6mea_B_0_B_β,mArh-5cb5_Q_0_Q_α

>  <ref_pdb>  (261) 
nan

>  <smiles>  (261) 
O=P(O)(O)OP(=O)(O)OC1OC(O)C(O)C1O

>  <submitter_email>  (261) 
nan

>  <disregarded>  (261) 


>  <LE>  (261) 
-0.735945

>  <submitter_institution>  (261) 
nan

>  <ref_mols>  (261) 
mArh-6mea_B_0_B,mArh-5cb5_Q_0_Q

>  <N_constrained_atoms>  (261) 
17.0

>  <ref_url>  (261) 
nan

>  <method>  (261) 
nan

>  <comRMSD>  (261) 
0.746594

>  <N_unconstrained_atoms>  (261) 
0.0

>  <∆∆G>  (261) 
-12.511063

>  <runtime>  (261) 
37.93262

>  <generation_date>  (261) 
nan

$$$$
5L9K_0_A_α-mArh-5dus_0_A_β
     RDKit          3D

 17 17  0  0  0  0  0  0  0  0999 V2000
   -2.1040   21.3290   -8.5920 C   0  0  0  0  0  0  0  0  0  0  0  0
   -0.9460   20.2700   -7.6970 P   0  0  2  0  0  0  0  0  0  0  0  0
   -1.5730   19.7440   -6.3420 O   0  0  0  0  0  0  0  0  0  0  0  0
   -3.5620   21.7070   -8.2590 C   0  0  1  0  0  0  0  0  0  0  0  0
    0.4290   20.8400   -7.5440 O   0  0  0  0  0  0  0  0  0  0  0  0
   -0.8130   18.9030   -8.5520 O   0  0  0  0  0  0  0  0  0  0  0  0
   -4.0360   21.0980   -7.0600 O   0  0  0  0  0  0  0  0  0  0  0  0
   -3.8720   23.2230   -8.1380 C   0  0  1  0  0  0  0  0  0  0  0  0
   -4.7050   23.7130   -9.2040 O   0  0  0  0  0  0  0  0  0  0  0  0
   -1.7270   18.2120   -5.9840 P   0  0  0  0  0  0  0  0  0  0  0  0
   -5.1140   21.9130   -6.6220 C   0  0  1  0  0  0  0  0  0  0  0  0
   -4.5890   23.3330   -6.7870 C   0  0  2  0  0  0  0  0  0  0  0  0
   -6.2930   21.6980   -7.3820 O   0  0  0  0  0  0  0  0  0  0  0  0
   -5.7190   24.2140   -6.8130 O   0  0  0  0  0  0  0  0  0  0  0  0
   -0.2780   17.5650   -6.0150 O   0  0  0  0  0  0  0  0  0  0  0  0
   -2.7450   17.4230   -6.7140 O   0  0  0  0  0  0  0  0  0  0  0  0
   -1.9210   18.2590   -4.4260 O   0  0  0  0  0  0  0  0  0  0  0  0
  1  2  1  0
  2  3  1  0
  4  1  1  1
  2  5  2  0
  2  6  1  6
  4  7  1  0
  4  8  1  0
  8  9  1  6
  3 10  1  0
  7 11  1  0
  8 12  1  0
 11 12  1  0
 11 13  1  6
 12 14  1  6
 10 15  1  0
 10 16  2  0
 10 17  1  0
M  END
>  <%Rank>  (262) 
19.923664

>  <N_hits>  (262) 
2

>  <submitter_name>  (262) 
nan

>  <original SMILES>  (262) 
nan

>  <∆G_unbound>  (262) 
1.703844

>  <∆G_bound>  (262) 
-11.725012

>  <regarded>  (262) 
5L9K_0_A_α,mArh-5dus_0_A_β

>  <ref_pdb>  (262) 
nan

>  <smiles>  (262) 
O=P(O)(O)OP(=O)(O)CC1OC(O)C(O)C1O

>  <submitter_email>  (262) 
nan

>  <disregarded>  (262) 


>  <LE>  (262) 
-0.789933

>  <submitter_institution>  (262) 
nan

>  <ref_mols>  (262) 
5L9K_0_A,mArh-5dus_0_A

>  <N_constrained_atoms>  (262) 
17.0

>  <ref_url>  (262) 
nan

>  <method>  (262) 
nan

>  <comRMSD>  (262) 
0.774424

>  <N_unconstrained_atoms>  (262) 
0.0

>  <∆∆G>  (262) 
-13.428856

>  <runtime>  (262) 
29.743998

>  <generation_date>  (262) 
nan

$$$$
1SPV_0_A_α-mArh-5cms_F_6_F_γ
     RDKit          3D

 21 22  0  0  0  0  0  0  0  0999 V2000
    1.0990   20.8630   -7.7400 O   0  0  0  0  0  0  0  0  0  0  0  0
    0.0110   19.6860   -7.6910 S   0  0  0  0  0  0  0  0  0  0  0  0
    0.2900   18.5590   -8.7890 O   0  0  0  0  0  0  0  0  0  0  0  0
   -0.1210   19.1350   -6.1890 O   0  0  0  0  0  0  0  0  0  0  0  0
   -1.5620   20.3210   -8.1860 C   0  0  0  0  0  0  0  0  0  0  0  0
   -1.9060   21.7180   -7.7460 C   0  0  0  0  0  0  0  0  0  0  0  0
   -0.6810   17.8690   -5.8930 C   0  0  0  0  0  0  0  0  0  0  0  0
    0.3810   16.9410   -5.2920 C   0  0  0  0  0  0  0  0  0  0  0  0
   -3.3720   21.9150   -7.7620 N   0  0  0  0  0  0  0  0  0  0  0  0
   -3.8550   22.4470   -9.0530 C   0  0  0  0  0  0  0  0  0  0  0  0
   -3.7880   22.8000   -6.6720 C   0  0  0  0  0  0  0  0  0  0  0  0
   -0.2880   15.7690   -4.5670 C   0  0  2  0  0  0  0  0  0  0  0  0
   -5.3690   22.6600   -9.0540 C   0  0  0  0  0  0  0  0  0  0  0  0
   -5.2670   23.1790   -6.7020 C   0  0  0  0  0  0  0  0  0  0  0  0
    0.2160   15.6300   -3.2240 O   0  0  0  0  0  0  0  0  0  0  0  0
   -0.1500   14.3450   -5.1110 C   0  0  1  0  0  0  0  0  0  0  0  0
    1.1950   13.8520   -5.1050 O   0  0  0  0  0  0  0  0  0  0  0  0
   -5.7950   23.5230   -7.9950 O   0  0  0  0  0  0  0  0  0  0  0  0
   -0.2900   14.3500   -2.7710 C   0  0  0  0  0  0  0  0  0  0  0  0
   -0.9390   13.6990   -3.9990 C   0  0  2  0  0  0  0  0  0  0  0  0
   -0.7500   12.2860   -4.0200 O   0  0  0  0  0  0  0  0  0  0  0  0
  2  1  1  0
  2  3  1  0
  2  4  1  0
  2  5  1  0
  5  6  1  0
  4  7  1  0
  7  8  1  0
  6  9  1  0
  9 10  1  0
  9 11  1  0
 12  8  1  6
 10 13  1  0
 11 14  1  0
 12 15  1  0
 12 16  1  0
 16 17  1  1
 13 18  1  0
 14 18  1  0
 15 19  1  0
 16 20  1  0
 19 20  1  0
 20 21  1  1
M  END
>  <%Rank>  (263) 
20.0

>  <N_hits>  (263) 
2

>  <submitter_name>  (263) 
nan

>  <original SMILES>  (263) 
nan

>  <∆G_unbound>  (263) 
0.77677

>  <∆G_bound>  (263) 
-10.210626

>  <regarded>  (263) 
1SPV_0_A_α,mArh-5cms_F_6_F_γ

>  <ref_pdb>  (263) 
nan

>  <smiles>  (263) 
OC1COC(CCOS(O)(O)CCN2CCOCC2)C1O

>  <submitter_email>  (263) 
nan

>  <disregarded>  (263) 


>  <LE>  (263) 
-0.523209

>  <submitter_institution>  (263) 
nan

>  <ref_mols>  (263) 
1SPV_0_A,mArh-5cms_F_6_F

>  <N_constrained_atoms>  (263) 
20.0

>  <ref_url>  (263) 
nan

>  <method>  (263) 
nan

>  <comRMSD>  (263) 
0.677483

>  <N_unconstrained_atoms>  (263) 
1.0

>  <∆∆G>  (263) 
-10.987396

>  <runtime>  (263) 
34.590238

>  <generation_date>  (263) 
nan

$$$$
5CB5_0_I_α-6WOJ_0_C_β
     RDKit          3D

 17 17  0  0  0  0  0  0  0  0999 V2000
   -2.0400   21.4370   -7.4930 C   0  0  0  0  0  0  0  0  0  0  0  0
   -0.6140   20.4580   -7.8630 P   0  0  0  0  0  0  0  0  0  0  0  0
   -0.5290   19.7570   -6.4800 O   0  0  0  0  0  0  0  0  0  0  0  0
   -3.1430   21.6380   -8.5390 C   0  0  1  0  0  0  0  0  0  0  0  0
    0.8740   21.0630   -7.6690 O   0  0  0  0  0  0  0  0  0  0  0  0
   -0.7110   18.8710   -8.4850 O   0  0  0  0  0  0  0  0  0  0  0  0
   -4.2830   20.8740   -8.2810 O   0  0  0  0  0  0  0  0  0  0  0  0
   -3.7420   23.0380   -8.5090 C   0  0  1  0  0  0  0  0  0  0  0  0
   -4.6490   23.1880   -9.5510 O   0  0  0  0  0  0  0  0  0  0  0  0
   -1.1170   18.2450   -6.1170 P   0  0  0  0  0  0  0  0  0  0  0  0
   -5.0770   21.5410   -7.3760 C   0  0  2  0  0  0  0  0  0  0  0  0
   -4.5340   22.9170   -7.2120 C   0  0  2  0  0  0  0  0  0  0  0  0
   -5.1160   20.9630   -6.1240 O   0  0  0  0  0  0  0  0  0  0  0  0
   -5.5690   23.8790   -7.2210 O   0  0  0  0  0  0  0  0  0  0  0  0
   -0.1290   17.1040   -5.3730 O   0  0  0  0  0  0  0  0  0  0  0  0
   -1.5480   18.7130   -4.7230 O   0  0  0  0  0  0  0  0  0  0  0  0
   -2.5350   17.7460   -6.6600 O   0  0  0  0  0  0  0  0  0  0  0  0
  1  2  1  0
  2  3  1  0
  4  1  1  1
  2  5  1  0
  2  6  1  0
  4  7  1  0
  4  8  1  0
  8  9  1  6
  3 10  1  0
  7 11  1  0
  8 12  1  0
 11 12  1  0
 11 13  1  1
 12 14  1  6
 10 15  1  0
 10 16  1  0
 10 17  1  0
M  CHG  2   5  -1  16  -1
M  END
>  <%Rank>  (264) 
20.076336

>  <N_hits>  (264) 
2

>  <submitter_name>  (264) 
nan

>  <original SMILES>  (264) 
nan

>  <∆G_unbound>  (264) 
1.818629

>  <∆G_bound>  (264) 
-7.871786

>  <regarded>  (264) 
5CB5_0_I_α,6WOJ_0_C_β

>  <ref_pdb>  (264) 
nan

>  <smiles>  (264) 
[O-][PH](O)(O)O[PH]([O-])(O)CC1OC(O)C(O)C1O

>  <submitter_email>  (264) 
nan

>  <disregarded>  (264) 


>  <LE>  (264) 
-0.570024

>  <submitter_institution>  (264) 
nan

>  <ref_mols>  (264) 
5CB5_0_I,6WOJ_0_C

>  <N_constrained_atoms>  (264) 
17.0

>  <ref_url>  (264) 
nan

>  <method>  (264) 
nan

>  <comRMSD>  (264) 
0.665852

>  <N_unconstrained_atoms>  (264) 
0.0

>  <∆∆G>  (264) 
-9.690415

>  <runtime>  (264) 
24.196588

>  <generation_date>  (264) 
nan

$$$$
3Q6Z_0_A_γ-6MEA_0_A_β
     RDKit          3D

 16 16  0  0  0  0  0  0  0  0999 V2000
   -0.6360   12.2610   -4.0980 O   0  0  0  0  0  0  0  0  0  0  0  0
   -0.9020   13.6200   -4.1840 C   0  0  1  0  0  0  0  0  0  0  0  0
   -0.8580   14.3420   -2.8360 C   0  0  0  0  0  0  0  0  0  0  0  0
    0.1500   14.3860   -4.9260 C   0  0  2  0  0  0  0  0  0  0  0  0
    1.3770   14.0790   -4.3200 O   0  0  0  0  0  0  0  0  0  0  0  0
   -0.3030   15.6100   -3.1400 O   0  0  0  0  0  0  0  0  0  0  0  0
   -0.4300   15.6740   -4.5150 C   0  0  1  0  0  0  0  0  0  0  0  0
   -0.0090   16.9940   -5.1770 C   0  0  0  0  0  0  0  0  0  0  0  0
   -1.4040   18.0230   -5.5250 P   0  0  0  0  0  0  0  0  0  0  0  0
   -0.7450   19.2880   -6.0810 O   0  0  0  0  0  0  0  0  0  0  0  0
   -2.3210   17.9460   -6.9590 O   0  0  0  0  0  0  0  0  0  0  0  0
   -1.9930   18.9770   -4.4080 O   0  0  0  0  0  0  0  0  0  0  0  0
   -0.1550   19.6380   -7.5150 P   0  0  0  0  0  0  0  0  0  0  0  0
   -1.4610   20.2850   -8.0110 O   0  0  0  0  0  0  0  0  0  0  0  0
    0.6050   21.1150   -7.7650 O   0  0  0  0  0  0  0  0  0  0  0  0
   -0.1030   18.5020   -8.6970 O   0  0  0  0  0  0  0  0  0  0  0  0
  2  1  1  1
  2  3  1  0
  2  4  1  0
  4  5  1  1
  3  6  1  0
  4  7  1  0
  6  7  1  0
  7  8  1  6
  8  9  1  0
  9 10  1  0
  9 11  1  0
  9 12  1  0
 10 13  1  0
 13 14  1  0
 13 15  1  0
 13 16  1  0
M  CHG  2  11  -1  15  -1
M  END
>  <%Rank>  (265) 
20.152672

>  <N_hits>  (265) 
2

>  <submitter_name>  (265) 
nan

>  <original SMILES>  (265) 
nan

>  <∆G_unbound>  (265) 
0.683631

>  <∆G_bound>  (265) 
-7.746279

>  <regarded>  (265) 
3Q6Z_0_A_γ,6MEA_0_A_β

>  <ref_pdb>  (265) 
nan

>  <smiles>  (265) 
[O-][PH](O)(O)O[PH]([O-])(O)CC1OCC(O)C1O

>  <submitter_email>  (265) 
nan

>  <disregarded>  (265) 


>  <LE>  (265) 
-0.526869

>  <submitter_institution>  (265) 
nan

>  <ref_mols>  (265) 
3Q6Z_0_A,6MEA_0_A

>  <N_constrained_atoms>  (265) 
16.0

>  <ref_url>  (265) 
nan

>  <method>  (265) 
nan

>  <comRMSD>  (265) 
0.622676

>  <N_unconstrained_atoms>  (265) 
0.0

>  <∆∆G>  (265) 
-8.429911

>  <runtime>  (265) 
38.064518

>  <generation_date>  (265) 
nan

$$$$
5CB5_0_H_γ-mArh-EU0172_0_A_α
     RDKit          3D

 20 21  0  0  0  0  0  0  0  0999 V2000
   -1.4220   12.6320   -4.1420 O   0  0  0  0  0  0  0  0  0  0  0  0
   -0.5150   13.6670   -3.7720 C   0  0  2  0  0  0  0  0  0  0  0  0
   -1.1450   14.8410   -3.0450 C   0  0  2  0  0  0  0  0  0  0  0  0
    0.0160   14.3790   -5.0020 C   0  0  2  0  0  0  0  0  0  0  0  0
    0.9910   13.5590   -5.6280 O   0  0  0  0  0  0  0  0  0  0  0  0
   -2.4920   15.2590   -3.6440 C   0  0  0  0  0  0  0  0  0  0  0  0
   -0.1480   15.8750   -3.1660 O   0  0  0  0  0  0  0  0  0  0  0  0
    0.5180   15.7180   -4.4300 C   0  0  2  0  0  0  0  0  0  0  0  0
    0.2610   16.9780   -5.2520 C   0  0  0  0  0  0  0  0  0  0  0  0
   -3.6680   14.4180   -3.1540 C   0  0  0  0  0  0  0  0  0  0  0  0
   -4.2830   14.6610   -1.7900 C   0  0  0  0  0  0  0  0  0  0  0  0
   -3.4940   14.7110   -0.5630 C   0  0  0  0  0  0  0  0  0  0  0  0
   -5.6080   14.7900   -1.7100 C   0  0  0  0  0  0  0  0  0  0  0  0
   -4.1190   14.6810    0.6300 C   0  0  0  0  0  0  0  0  0  0  0  0
   -6.2780   14.9460   -0.4090 C   0  0  0  0  0  0  0  0  0  0  0  0
   -7.4460   15.3170   -0.3710 O   0  0  0  0  0  0  0  0  0  0  0  0
   -5.5020   14.6060    0.6940 N   0  0  0  0  0  0  0  0  0  0  0  0
   -6.1410   13.8220    1.7530 C   0  0  0  0  0  0  0  0  0  0  0  0
   -7.0400   14.7030    2.6340 C   0  0  0  0  0  0  0  0  0  0  0  0
   -7.7570   13.9450    3.6520 N   0  0  0  0  0  0  0  0  0  0  0  0
  2  1  1  6
  2  3  1  0
  2  4  1  0
  4  5  1  1
  3  6  1  6
  3  7  1  0
  4  8  1  0
  7  8  1  0
  8  9  1  6
  6 10  1  0
 10 11  1  0
 11 12  1  0
 11 13  2  0
 12 14  2  0
 13 15  1  0
 15 16  2  0
 14 17  1  0
 15 17  1  0
 17 18  1  0
 18 19  1  0
 19 20  1  0
M  END
>  <%Rank>  (266) 
20.229008

>  <N_hits>  (266) 
2

>  <submitter_name>  (266) 
nan

>  <original SMILES>  (266) 
nan

>  <∆G_unbound>  (266) 
0.678876

>  <∆G_bound>  (266) 
-5.54386

>  <regarded>  (266) 
5CB5_0_H_γ,mArh-EU0172_0_A_α

>  <ref_pdb>  (266) 
nan

>  <smiles>  (266) 
CC1OC(CCc2ccn(CCN)c(=O)c2)C(O)C1O

>  <submitter_email>  (266) 
nan

>  <disregarded>  (266) 


>  <LE>  (266) 
-0.311137

>  <submitter_institution>  (266) 
nan

>  <ref_mols>  (266) 
5CB5_0_H,mArh-EU0172_0_A

>  <N_constrained_atoms>  (266) 
18.0

>  <ref_url>  (266) 
nan

>  <method>  (266) 
nan

>  <comRMSD>  (266) 
0.503216

>  <N_unconstrained_atoms>  (266) 
2.0

>  <∆∆G>  (266) 
-6.222736

>  <runtime>  (266) 
51.604616

>  <generation_date>  (266) 
nan

$$$$
mArh-5cb5_A_0_A_γ-mArh-5cb3_0_A_β
     RDKit          3D

 16 16  0  0  0  0  0  0  0  0999 V2000
   -1.7710   12.9680   -4.3050 O   0  0  0  0  0  0  0  0  0  0  0  0
   -0.5380   13.5630   -3.9520 C   0  0  2  0  0  0  0  0  0  0  0  0
   -0.6380   14.5430   -2.7740 C   0  0  0  0  0  0  0  0  0  0  0  0
    0.0240   14.4250   -5.0680 C   0  0  2  0  0  0  0  0  0  0  0  0
    1.4500   14.3960   -4.9150 O   0  0  0  0  0  0  0  0  0  0  0  0
   -0.2530   15.8340   -3.2750 O   0  0  0  0  0  0  0  0  0  0  0  0
   -0.5820   15.7600   -4.6670 C   0  0  1  0  0  0  0  0  0  0  0  0
   -0.1010   17.0090   -5.3780 C   0  0  0  0  0  0  0  0  0  0  0  0
   -1.4550   18.0540   -5.9350 P   0  0  1  0  0  0  0  0  0  0  0  0
   -0.8670   19.3890   -6.4910 O   0  0  0  0  0  0  0  0  0  0  0  0
   -2.4820   17.3890   -6.7990 O   0  0  0  0  0  0  0  0  0  0  0  0
   -2.0670   18.6040   -4.5910 O   0  0  0  0  0  0  0  0  0  0  0  0
   -0.2760   19.8930   -7.8310 P   0  0  0  0  0  0  0  0  0  0  0  0
   -1.5670   20.5200   -8.5060 O   0  0  0  0  0  0  0  0  0  0  0  0
    0.8740   20.8060   -7.7560 O   0  0  0  0  0  0  0  0  0  0  0  0
   -0.0640   18.6220   -8.7790 O   0  0  0  0  0  0  0  0  0  0  0  0
  2  1  1  6
  2  3  1  0
  2  4  1  0
  4  5  1  1
  3  6  1  0
  4  7  1  0
  6  7  1  0
  7  8  1  6
  8  9  1  0
  9 10  1  0
  9 11  2  0
  9 12  1  1
 10 13  1  0
 13 14  1  0
 13 15  2  0
 13 16  1  0
M  END
>  <%Rank>  (267) 
20.305344

>  <N_hits>  (267) 
2

>  <submitter_name>  (267) 
nan

>  <original SMILES>  (267) 
nan

>  <∆G_unbound>  (267) 
1.057928

>  <∆G_bound>  (267) 
-9.174834

>  <regarded>  (267) 
mArh-5cb5_A_0_A_γ,mArh-5cb3_0_A_β

>  <ref_pdb>  (267) 
nan

>  <smiles>  (267) 
O=P(O)(O)OP(=O)(O)CC1OCC(O)C1O

>  <submitter_email>  (267) 
nan

>  <disregarded>  (267) 


>  <LE>  (267) 
-0.639548

>  <submitter_institution>  (267) 
nan

>  <ref_mols>  (267) 
mArh-5cb5_A_0_A,mArh-5cb3_0_A

>  <N_constrained_atoms>  (267) 
16.0

>  <ref_url>  (267) 
nan

>  <method>  (267) 
nan

>  <comRMSD>  (267) 
0.679449

>  <N_unconstrained_atoms>  (267) 
0.0

>  <∆∆G>  (267) 
-10.232762

>  <runtime>  (267) 
36.512187

>  <generation_date>  (267) 
nan

$$$$
mArh-5cms_H_7_H_α-mArh-5cms_F_6_F_β
     RDKit          3D

 17 17  0  0  0  0  0  0  0  0999 V2000
   -1.8530   21.4030   -8.5520 C   0  0  0  0  0  0  0  0  0  0  0  0
   -0.6140   20.2940   -7.8820 P   0  0  2  0  0  0  0  0  0  0  0  0
   -1.2140   19.7810   -6.5010 O   0  0  0  0  0  0  0  0  0  0  0  0
   -1.5660   21.9430   -9.9420 C   0  0  1  0  0  0  0  0  0  0  0  0
    0.7570   20.8760   -7.7760 O   0  0  0  0  0  0  0  0  0  0  0  0
   -0.5920   18.9170   -8.7170 O   0  0  0  0  0  0  0  0  0  0  0  0
   -2.7950   22.3180  -10.5930 O   0  0  0  0  0  0  0  0  0  0  0  0
   -0.6440   23.1810   -9.9410 C   0  0  1  0  0  0  0  0  0  0  0  0
    0.5710   23.0650  -10.6680 O   0  0  0  0  0  0  0  0  0  0  0  0
   -1.6340   18.2790   -6.2080 P   0  0  0  0  0  0  0  0  0  0  0  0
   -2.9070   23.7150  -10.3880 C   0  0  1  0  0  0  0  0  0  0  0  0
   -1.4820   24.2810  -10.5310 C   0  0  2  0  0  0  0  0  0  0  0  0
   -3.8440   24.2960  -11.2720 O   0  0  0  0  0  0  0  0  0  0  0  0
   -1.1880   24.6010  -11.8910 O   0  0  0  0  0  0  0  0  0  0  0  0
   -0.2830   17.4550   -6.3180 O   0  0  0  0  0  0  0  0  0  0  0  0
   -2.7510   17.6880   -6.9690 O   0  0  0  0  0  0  0  0  0  0  0  0
   -1.8410   18.2190   -4.6390 O   0  0  0  0  0  0  0  0  0  0  0  0
  1  2  1  0
  2  3  1  0
  4  1  1  1
  2  5  2  0
  2  6  1  6
  4  7  1  0
  4  8  1  0
  8  9  1  6
  3 10  1  0
  7 11  1  0
  8 12  1  0
 11 12  1  0
 11 13  1  6
 12 14  1  6
 10 15  1  0
 10 16  2  0
 10 17  1  0
M  END
>  <%Rank>  (268) 
20.381679

>  <N_hits>  (268) 
2

>  <submitter_name>  (268) 
nan

>  <original SMILES>  (268) 
nan

>  <∆G_unbound>  (268) 
1.703844

>  <∆G_bound>  (268) 
-8.098197

>  <regarded>  (268) 
mArh-5cms_H_7_H_α,mArh-5cms_F_6_F_β

>  <ref_pdb>  (268) 
nan

>  <smiles>  (268) 
O=P(O)(O)OP(=O)(O)CC1OC(O)C(O)C1O

>  <submitter_email>  (268) 
nan

>  <disregarded>  (268) 


>  <LE>  (268) 
-0.576591

>  <submitter_institution>  (268) 
nan

>  <ref_mols>  (268) 
mArh-5cms_H_7_H,mArh-5cms_F_6_F

>  <N_constrained_atoms>  (268) 
17.0

>  <ref_url>  (268) 
nan

>  <method>  (268) 
nan

>  <comRMSD>  (268) 
0.671788

>  <N_unconstrained_atoms>  (268) 
0.0

>  <∆∆G>  (268) 
-9.802041

>  <runtime>  (268) 
30.09423

>  <generation_date>  (268) 
nan

$$$$
mArh-5cb5_E_0_E_β-mArh-5cb5_R_0_R_β
     RDKit          3D

  9  8  0  0  0  0  0  0  0  0999 V2000
   -1.1420   20.3620   -9.0260 O   0  0  0  0  0  0  0  0  0  0  0  0
   -0.1820   19.8900   -7.8700 P   0  0  0  0  0  0  0  0  0  0  0  0
   -1.1700   19.6620   -6.6950 O   0  0  0  0  0  0  0  0  0  0  0  0
    1.0020   20.7750   -7.6500 O   0  0  0  0  0  0  0  0  0  0  0  0
    0.1240   18.4760   -8.5570 O   0  0  0  0  0  0  0  0  0  0  0  0
   -1.6260   18.2800   -6.1120 P   0  0  0  0  0  0  0  0  0  0  0  0
   -0.3170   17.3800   -6.0410 O   0  0  0  0  0  0  0  0  0  0  0  0
   -2.7280   17.6480   -6.8570 O   0  0  0  0  0  0  0  0  0  0  0  0
   -1.9080   18.6310   -4.5960 O   0  0  0  0  0  0  0  0  0  0  0  0
  1  2  1  0
  2  3  1  0
  2  4  2  0
  2  5  1  0
  3  6  1  0
  6  7  1  0
  6  8  2  0
  6  9  1  0
M  END
>  <%Rank>  (269) 
20.458015

>  <N_hits>  (269) 
2

>  <submitter_name>  (269) 
nan

>  <original SMILES>  (269) 
nan

>  <∆G_unbound>  (269) 
0.687887

>  <∆G_bound>  (269) 
-7.153593

>  <regarded>  (269) 
mArh-5cb5_E_0_E_β,mArh-5cb5_R_0_R_β

>  <ref_pdb>  (269) 
nan

>  <smiles>  (269) 
O=P(O)(O)OP(=O)(O)O

>  <submitter_email>  (269) 
nan

>  <disregarded>  (269) 


>  <LE>  (269) 
-0.871276

>  <submitter_institution>  (269) 
nan

>  <ref_mols>  (269) 
mArh-5cb5_E_0_E,mArh-5cb5_R_0_R

>  <N_constrained_atoms>  (269) 
9.0

>  <ref_url>  (269) 
nan

>  <method>  (269) 
nan

>  <comRMSD>  (269) 
0.596032

>  <N_unconstrained_atoms>  (269) 
0.0

>  <∆∆G>  (269) 
-7.841481

>  <runtime>  (269) 
24.285806

>  <generation_date>  (269) 
nan

$$$$
mArh-6woj_D_0_D_α-5DUS_0_A_β
     RDKit          3D

 17 17  0  0  0  0  0  0  0  0999 V2000
   -1.4270   21.8120   -7.8180 C   0  0  0  0  0  0  0  0  0  0  0  0
   -0.6070   20.2600   -7.7620 P   0  0  0  0  0  0  0  0  0  0  0  0
   -1.2640   19.8040   -6.4260 O   0  0  0  0  0  0  0  0  0  0  0  0
   -2.9260   21.9440   -8.1070 C   0  0  1  0  0  0  0  0  0  0  0  0
    0.8920   20.1400   -7.1970 O   0  0  0  0  0  0  0  0  0  0  0  0
   -1.1940   18.8360   -8.4500 O   0  0  0  0  0  0  0  0  0  0  0  0
   -3.7160   21.1870   -7.2310 O   0  0  0  0  0  0  0  0  0  0  0  0
   -3.3900   23.4090   -7.9000 C   0  0  1  0  0  0  0  0  0  0  0  0
   -4.2390   23.8200   -8.9260 O   0  0  0  0  0  0  0  0  0  0  0  0
   -1.3260   18.2960   -5.7300 P   0  0  0  0  0  0  0  0  0  0  0  0
   -4.7980   21.9560   -6.8760 C   0  0  2  0  0  0  0  0  0  0  0  0
   -4.2290   23.2970   -6.6330 C   0  0  2  0  0  0  0  0  0  0  0  0
   -5.4660   21.5700   -5.7220 O   0  0  0  0  0  0  0  0  0  0  0  0
   -5.2310   24.2910   -6.6260 O   0  0  0  0  0  0  0  0  0  0  0  0
   -0.2250   17.1030   -6.1080 O   0  0  0  0  0  0  0  0  0  0  0  0
   -2.3120   17.7960   -6.7900 O   0  0  0  0  0  0  0  0  0  0  0  0
   -2.2650   17.9400   -4.5070 O   0  0  0  0  0  0  0  0  0  0  0  0
  1  2  1  0
  2  3  1  0
  4  1  1  1
  2  5  1  0
  2  6  1  0
  4  7  1  0
  4  8  1  0
  8  9  1  6
  3 10  1  0
  7 11  1  0
  8 12  1  0
 11 12  1  0
 11 13  1  1
 12 14  1  6
 10 15  1  0
 10 16  1  0
 10 17  1  0
M  CHG  2   5  -1  16  -1
M  END
>  <%Rank>  (270) 
20.534351

>  <N_hits>  (270) 
2

>  <submitter_name>  (270) 
nan

>  <original SMILES>  (270) 
nan

>  <∆G_unbound>  (270) 
1.818629

>  <∆G_bound>  (270) 
-8.056913

>  <regarded>  (270) 
mArh-6woj_D_0_D_α,5DUS_0_A_β

>  <ref_pdb>  (270) 
nan

>  <smiles>  (270) 
[O-][PH](O)(O)O[PH]([O-])(O)CC1OC(O)C(O)C1O

>  <submitter_email>  (270) 
nan

>  <disregarded>  (270) 


>  <LE>  (270) 
-0.580914

>  <submitter_institution>  (270) 
nan

>  <ref_mols>  (270) 
mArh-6woj_D_0_D,5DUS_0_A

>  <N_constrained_atoms>  (270) 
17.0

>  <ref_url>  (270) 
nan

>  <method>  (270) 
nan

>  <comRMSD>  (270) 
0.674909

>  <N_unconstrained_atoms>  (270) 
0.0

>  <∆∆G>  (270) 
-9.875542

>  <runtime>  (270) 
24.559619

>  <generation_date>  (270) 
nan

$$$$
5CB5_0_I_γ-5CB5_0_F_β
     RDKit          3D

 16 16  0  0  0  0  0  0  0  0999 V2000
   -1.3750   12.8710   -3.9750 O   0  0  0  0  0  0  0  0  0  0  0  0
   -0.2830   13.7300   -3.9200 C   0  0  2  0  0  0  0  0  0  0  0  0
   -0.3570   14.7200   -2.7710 C   0  0  0  0  0  0  0  0  0  0  0  0
   -0.1900   14.6110   -5.1430 C   0  0  2  0  0  0  0  0  0  0  0  0
    1.1090   14.4530   -5.6170 O   0  0  0  0  0  0  0  0  0  0  0  0
    0.1730   15.8960   -3.3210 O   0  0  0  0  0  0  0  0  0  0  0  0
   -0.4590   15.9520   -4.5460 C   0  0  1  0  0  0  0  0  0  0  0  0
   -0.1500   17.2350   -5.3530 C   0  0  0  0  0  0  0  0  0  0  0  0
   -1.6210   18.1390   -5.6680 P   0  0  0  0  0  0  0  0  0  0  0  0
   -1.2520   19.3180   -6.5850 O   0  0  0  0  0  0  0  0  0  0  0  0
   -2.6880   17.6500   -6.8890 O   0  0  0  0  0  0  0  0  0  0  0  0
   -2.1510   19.2460   -4.6570 O   0  0  0  0  0  0  0  0  0  0  0  0
   -0.1380   19.5320   -7.6970 P   0  0  0  0  0  0  0  0  0  0  0  0
   -1.1770   20.0030   -8.6990 O   0  0  0  0  0  0  0  0  0  0  0  0
    0.2310   18.4060   -8.8520 O   0  0  0  0  0  0  0  0  0  0  0  0
    0.6920   20.9620   -7.7220 O   0  0  0  0  0  0  0  0  0  0  0  0
  2  1  1  6
  2  3  1  0
  2  4  1  0
  4  5  1  1
  3  6  1  0
  4  7  1  0
  6  7  1  0
  7  8  1  6
  8  9  1  0
  9 10  1  0
  9 11  1  0
  9 12  1  0
 10 13  1  0
 13 14  1  0
 13 15  1  0
 13 16  1  0
M  CHG  2  11  -1  15  -1
M  END
>  <%Rank>  (271) 
20.610687

>  <N_hits>  (271) 
2

>  <submitter_name>  (271) 
nan

>  <original SMILES>  (271) 
nan

>  <∆G_unbound>  (271) 
0.683631

>  <∆G_bound>  (271) 
-7.621077

>  <regarded>  (271) 
5CB5_0_I_γ,5CB5_0_F_β

>  <ref_pdb>  (271) 
nan

>  <smiles>  (271) 
[O-][PH](O)(O)O[PH]([O-])(O)CC1OCC(O)C1O

>  <submitter_email>  (271) 
nan

>  <disregarded>  (271) 


>  <LE>  (271) 
-0.519044

>  <submitter_institution>  (271) 
nan

>  <ref_mols>  (271) 
5CB5_0_I,5CB5_0_F

>  <N_constrained_atoms>  (271) 
16.0

>  <ref_url>  (271) 
nan

>  <method>  (271) 
nan

>  <comRMSD>  (271) 
0.622086

>  <N_unconstrained_atoms>  (271) 
0.0

>  <∆∆G>  (271) 
-8.304708

>  <runtime>  (271) 
34.239868

>  <generation_date>  (271) 
nan

$$$$
mArh-EU0144_0_A_α-5CMS_0_E_β
     RDKit          3D

 20 20  0  0  0  0  0  0  0  0999 V2000
   -8.2960   14.3710    0.7160 C   0  0  0  0  0  0  0  0  0  0  0  0
   -6.8600   14.6220    0.4730 C   0  0  0  0  0  0  0  0  0  0  0  0
   -6.2480   14.5910   -0.7450 N   0  0  0  0  0  0  0  0  0  0  0  0
   -5.9440   14.9160    1.3750 O   0  0  0  0  0  0  0  0  0  0  0  0
   -4.7710   15.0780    0.7680 C   0  0  0  0  0  0  0  0  0  0  0  0
   -4.9320   14.8770   -0.5920 C   0  0  0  0  0  0  0  0  0  0  0  0
   -3.5360   15.4030    1.3780 N   0  0  0  0  0  0  0  0  0  0  0  0
   -3.9480   14.9430   -1.6520 C   0  0  0  0  0  0  0  0  0  0  0  0
   -3.0860   14.9890   -2.5150 C   0  0  0  0  0  0  0  0  0  0  0  0
   -1.9950   15.0280   -3.5220 C   0  0  0  0  0  0  0  0  0  0  0  0
   -2.3230   15.9610   -4.7070 C   0  0  0  0  0  0  0  0  0  0  0  0
   -1.2280   16.6610   -5.2010 O   0  0  0  0  0  0  0  0  0  0  0  0
   -1.7870   17.8860   -6.1550 P   0  0  0  0  0  0  0  0  0  0  0  0
   -0.4560   18.6440   -6.1910 O   0  0  0  0  0  0  0  0  0  0  0  0
   -3.1080   17.1230   -6.2930 O   0  0  0  0  0  0  0  0  0  0  0  0
   -2.4350   19.1760   -5.3640 O   0  0  0  0  0  0  0  0  0  0  0  0
   -0.0770   19.4180   -7.6160 P   0  0  0  0  0  0  0  0  0  0  0  0
   -1.5050   19.9100   -7.8580 O   0  0  0  0  0  0  0  0  0  0  0  0
    0.4690   20.9670   -7.6590 O   0  0  0  0  0  0  0  0  0  0  0  0
    0.0440   18.5250   -8.9570 O   0  0  0  0  0  0  0  0  0  0  0  0
  1  2  1  0
  2  3  2  0
  2  4  1  0
  4  5  1  0
  3  6  1  0
  5  6  2  0
  5  7  1  0
  6  8  1  0
  8  9  3  0
  9 10  1  0
 10 11  1  0
 11 12  1  0
 12 13  1  0
 13 14  1  0
 13 15  1  0
 13 16  1  0
 14 17  1  0
 17 18  1  0
 17 19  1  0
 17 20  1  0
M  CHG  2  15  -1  19  -1
M  END
>  <%Rank>  (272) 
20.687023

>  <N_hits>  (272) 
2

>  <submitter_name>  (272) 
nan

>  <original SMILES>  (272) 
nan

>  <∆G_unbound>  (272) 
0.290168

>  <∆G_bound>  (272) 
-7.924266

>  <regarded>  (272) 
mArh-EU0144_0_A_α,5CMS_0_E_β

>  <ref_pdb>  (272) 
nan

>  <smiles>  (272) 
Cc1nc(C#CCCO[PH]([O-])(O)O[PH]([O-])(O)O)c(N)o1

>  <submitter_email>  (272) 
nan

>  <disregarded>  (272) 


>  <LE>  (272) 
-0.410722

>  <submitter_institution>  (272) 
nan

>  <ref_mols>  (272) 
mArh-EU0144_0_A,5CMS_0_E

>  <N_constrained_atoms>  (272) 
18.0

>  <ref_url>  (272) 
nan

>  <method>  (272) 
nan

>  <comRMSD>  (272) 
0.556418

>  <N_unconstrained_atoms>  (272) 
2.0

>  <∆∆G>  (272) 
-8.214434

>  <runtime>  (272) 
39.507329

>  <generation_date>  (272) 
nan

$$$$
mArh-3q6z_0_A_β-5CB5_0_B_β
     RDKit          3D

  9  8  0  0  0  0  0  0  0  0999 V2000
   -1.6380   20.3320   -8.0030 O   0  0  0  0  0  0  0  0  0  0  0  0
   -0.2390   19.5980   -7.7890 P   0  0  0  0  0  0  0  0  0  0  0  0
   -0.2770   18.9530   -6.3790 O   0  0  0  0  0  0  0  0  0  0  0  0
    0.1220   18.6720   -8.8710 O   0  0  0  0  0  0  0  0  0  0  0  0
    0.7720   20.8320   -7.6660 O   0  0  0  0  0  0  0  0  0  0  0  0
   -1.4710   18.1260   -5.7670 P   0  0  0  0  0  0  0  0  0  0  0  0
   -0.8480   16.7020   -5.4110 O   0  0  0  0  0  0  0  0  0  0  0  0
   -2.0430   18.8740   -4.6300 O   0  0  0  0  0  0  0  0  0  0  0  0
   -2.5210   17.8210   -6.9380 O   0  0  0  0  0  0  0  0  0  0  0  0
  1  2  1  0
  2  3  1  0
  2  4  2  0
  2  5  1  0
  3  6  1  0
  6  7  1  0
  6  8  2  0
  6  9  1  0
M  END
>  <%Rank>  (273) 
20.763359

>  <N_hits>  (273) 
2

>  <submitter_name>  (273) 
nan

>  <original SMILES>  (273) 
nan

>  <∆G_unbound>  (273) 
0.687888

>  <∆G_bound>  (273) 
-8.229679

>  <regarded>  (273) 
mArh-3q6z_0_A_β,5CB5_0_B_β

>  <ref_pdb>  (273) 
nan

>  <smiles>  (273) 
O=P(O)(O)OP(=O)(O)O

>  <submitter_email>  (273) 
nan

>  <disregarded>  (273) 


>  <LE>  (273) 
-0.990841

>  <submitter_institution>  (273) 
nan

>  <ref_mols>  (273) 
mArh-3q6z_0_A,5CB5_0_B

>  <N_constrained_atoms>  (273) 
9.0

>  <ref_url>  (273) 
nan

>  <method>  (273) 
nan

>  <comRMSD>  (273) 
0.657824

>  <N_unconstrained_atoms>  (273) 
0.0

>  <∆∆G>  (273) 
-8.917567

>  <runtime>  (273) 
21.287995

>  <generation_date>  (273) 
nan

$$$$
mArh-6woj_D_0_D_γ-mArh-x0950_1_A_α
     RDKit          3D

 13 13  0  0  0  0  0  0  0  0999 V2000
   -0.9120   12.7340   -4.5940 O   0  0  0  0  0  0  0  0  0  0  0  0
   -0.6030   14.1250   -4.4940 C   0  0  1  0  0  0  0  0  0  0  0  0
   -0.4940   14.5870   -3.0490 C   0  0  0  0  0  0  0  0  0  0  0  0
    0.7880   14.4550   -5.0310 C   0  0  2  0  0  0  0  0  0  0  0  0
    1.8070   13.5200   -4.6330 O   0  0  0  0  0  0  0  0  0  0  0  0
    0.3800   15.7260   -3.0350 O   0  0  0  0  0  0  0  0  0  0  0  0
    1.1130   15.7500   -4.2770 C   0  0  2  0  0  0  0  0  0  0  0  0
    0.7420   17.0190   -5.0290 C   0  0  0  0  0  0  0  0  0  0  0  0
    1.4440   12.1600   -4.5270 C   0  0  2  0  0  0  0  0  0  0  0  0
    0.4610   11.7950   -5.4850 O   0  0  0  0  0  0  0  0  0  0  0  0
    0.9850   11.8460   -3.0830 C   0  0  0  0  0  0  0  0  0  0  0  0
    0.1820   10.9750   -2.7750 O   0  0  0  0  0  0  0  0  0  0  0  0
    1.5580   12.6280   -2.1400 O   0  0  0  0  0  0  0  0  0  0  0  0
  2  1  1  1
  2  3  1  0
  2  4  1  0
  4  5  1  1
  3  6  1  0
  4  7  1  0
  6  7  1  0
  7  8  1  6
  5  9  1  0
  9 10  1  6
  9 11  1  0
 11 12  2  0
 11 13  1  0
M  END
>  <%Rank>  (274) 
20.839695

>  <N_hits>  (274) 
2

>  <submitter_name>  (274) 
nan

>  <original SMILES>  (274) 
nan

>  <∆G_unbound>  (274) 
0.396483

>  <∆G_bound>  (274) 
-0.23146

>  <regarded>  (274) 
mArh-6woj_D_0_D_γ,mArh-x0950_1_A_α

>  <ref_pdb>  (274) 
nan

>  <smiles>  (274) 
CC1OCC(O)C1O[C@H](O)C(=O)O

>  <submitter_email>  (274) 
nan

>  <disregarded>  (274) 


>  <LE>  (274) 
-0.048303

>  <submitter_institution>  (274) 
nan

>  <ref_mols>  (274) 
mArh-6woj_D_0_D,mArh-x0950_1_A

>  <N_constrained_atoms>  (274) 
13.0

>  <ref_url>  (274) 
nan

>  <method>  (274) 
nan

>  <comRMSD>  (274) 
0.312356

>  <N_unconstrained_atoms>  (274) 
0.0

>  <∆∆G>  (274) 
-0.627943

>  <runtime>  (274) 
30.876824

>  <generation_date>  (274) 
nan

$$$$
mArh-5cb5_O_0_O_β-mArh-x0969_0_A_α
     RDKit          3D

 22 23  0  0  0  0  0  0  0  0999 V2000
   -1.5790   20.6930   -8.6320 O   0  0  0  0  0  0  0  0  0  0  0  0
   -0.4020   19.9860   -7.8280 P   0  0  0  0  0  0  0  0  0  0  0  0
   -1.0580   19.6050   -6.4180 O   0  0  0  0  0  0  0  0  0  0  0  0
    0.8390   20.7980   -7.7540 O   0  0  0  0  0  0  0  0  0  0  0  0
   -0.2270   18.6430   -8.6810 O   0  0  0  0  0  0  0  0  0  0  0  0
   -1.5150   18.1170   -6.0940 P   0  0  0  0  0  0  0  0  0  0  0  0
   -0.1740   17.2990   -6.3040 O   0  0  0  0  0  0  0  0  0  0  0  0
   -2.6180   17.6400   -6.9640 O   0  0  0  0  0  0  0  0  0  0  0  0
   -1.7300   17.9140   -4.5070 O   0  0  0  0  0  0  0  0  0  0  0  0
   -0.6780   17.1950   -3.8110 C   0  0  0  0  0  0  0  0  0  0  0  0
   -1.1690   16.1120   -2.8040 C   0  0  0  0  0  0  0  0  0  0  0  0
   -2.6150   15.6240   -2.9680 C   0  0  0  0  0  0  0  0  0  0  0  0
   -3.5210   15.4320   -1.7430 C   0  0  0  0  0  0  0  0  0  0  0  0
   -4.8040   15.1170   -1.9880 C   0  0  0  0  0  0  0  0  0  0  0  0
   -3.0700   15.5720   -0.3370 C   0  0  0  0  0  0  0  0  0  0  0  0
   -5.7340   14.9210   -0.9490 C   0  0  0  0  0  0  0  0  0  0  0  0
   -3.9710   15.3810    0.6770 C   0  0  0  0  0  0  0  0  0  0  0  0
   -7.0080   14.6160   -0.9870 N   0  0  0  0  0  0  0  0  0  0  0  0
   -5.3050   15.0570    0.3610 N   0  0  0  0  0  0  0  0  0  0  0  0
   -6.4690   14.8080    1.1080 C   0  0  0  0  0  0  0  0  0  0  0  0
   -7.4640   14.5460    0.2990 N   0  0  0  0  0  0  0  0  0  0  0  0
   -6.5740   14.8400    2.4500 N   0  0  0  0  0  0  0  0  0  0  0  0
  1  2  1  0
  2  3  1  0
  2  4  2  0
  2  5  1  0
  3  6  1  0
  6  7  1  0
  6  8  2  0
  6  9  1  0
  9 10  1  0
 10 11  1  0
 11 12  1  0
 12 13  1  0
 13 14  2  0
 13 15  1  0
 14 16  1  0
 15 17  2  0
 16 18  2  0
 16 19  1  0
 17 19  1  0
 19 20  1  0
 18 21  1  0
 20 21  2  0
 20 22  1  0
M  END
>  <%Rank>  (275) 
20.916031

>  <N_hits>  (275) 
2

>  <submitter_name>  (275) 
nan

>  <original SMILES>  (275) 
nan

>  <∆G_unbound>  (275) 
0.86685

>  <∆G_bound>  (275) 
-12.881157

>  <regarded>  (275) 
mArh-5cb5_O_0_O_β,mArh-x0969_0_A_α

>  <ref_pdb>  (275) 
nan

>  <smiles>  (275) 
Nc1nnc2cc(CCCOP(=O)(O)OP(=O)(O)O)ccn12

>  <submitter_email>  (275) 
nan

>  <disregarded>  (275) 


>  <LE>  (275) 
-0.624909

>  <submitter_institution>  (275) 
nan

>  <ref_mols>  (275) 
mArh-5cb5_O_0_O,mArh-x0969_0_A

>  <N_constrained_atoms>  (275) 
19.0

>  <ref_url>  (275) 
nan

>  <method>  (275) 
nan

>  <comRMSD>  (275) 
0.661589

>  <N_unconstrained_atoms>  (275) 
3.0

>  <∆∆G>  (275) 
-13.748007

>  <runtime>  (275) 
34.065489

>  <generation_date>  (275) 
nan

$$$$
5CB5_0_P_δ-mArh-x0591_0_A_α
     RDKit          3D

 23 25  0  0  0  0  0  0  0  0999 V2000
   -4.1100   15.6270    1.9280 N   0  0  0  0  0  0  0  0  0  0  0  0
   -2.9280   15.6230    1.0890 C   0  0  2  0  0  0  0  0  0  0  0  0
   -3.1130   14.9810   -0.2530 C   0  0  2  0  0  0  0  0  0  0  0  0
   -1.8450   14.9810    1.7410 N   0  0  0  0  0  0  0  0  0  0  0  0
   -1.8700   14.1540   -0.6090 C   0  0  1  0  0  0  0  0  0  0  0  0
   -3.2060   15.8550   -1.4000 N   0  0  0  0  0  0  0  0  0  0  0  0
   -0.5710   15.1800    1.0630 C   0  0  0  0  0  0  0  0  0  0  0  0
   -1.8950   14.1180   -2.0640 N   0  0  0  0  0  0  0  0  0  0  0  0
   -3.1760   14.7630   -2.3260 C   0  0  1  0  0  0  0  0  0  0  0  0
   -0.5970   14.7390   -0.3000 N   0  0  0  0  0  0  0  0  0  0  0  0
   -4.2860   13.9220   -1.6520 C   0  0  0  0  0  0  0  0  0  0  0  0
   -3.6210   15.0980   -3.7800 C   0  0  1  0  0  0  0  0  0  0  0  0
   -2.5340   14.5650   -5.1250 S   0  0  0  0  0  0  0  0  0  0  0  0
   -5.5490   14.7700   -1.6710 C   0  0  2  0  0  0  0  0  0  0  0  0
   -5.0970   14.8140   -4.0740 C   0  0  0  0  0  0  0  0  0  0  0  0
   -6.6160   14.5240   -0.5880 C   0  0  0  0  0  0  0  0  0  0  0  0
   -1.1320   15.4700   -4.9290 N   0  0  0  0  0  0  0  0  0  0  0  0
   -2.1220   13.1930   -4.9440 O   0  0  0  0  0  0  0  0  0  0  0  0
   -3.0950   15.0150   -6.3770 O   0  0  0  0  0  0  0  0  0  0  0  0
   -6.0070   14.6830   -3.0820 C   0  0  0  0  0  0  0  0  0  0  0  0
   -6.1410   14.2130    0.6670 N   0  0  0  0  0  0  0  0  0  0  0  0
   -7.8160   14.6140   -0.8260 O   0  0  0  0  0  0  0  0  0  0  0  0
   -6.8860   14.4540    1.8760 C   0  0  0  0  0  0  0  0  0  0  0  0
  2  1  1  1
  2  3  1  0
  2  4  1  0
  3  5  1  0
  3  6  1  6
  4  7  1  0
  5  8  1  6
  9  6  1  0
  8  9  1  0
  5 10  1  0
  7 10  1  0
  9 11  1  1
  9 12  1  0
 12 13  1  6
 11 14  1  0
 12 15  1  0
 14 16  1  1
 13 17  1  0
 13 18  2  0
 13 19  2  0
 14 20  1  0
 15 20  2  0
 16 21  1  0
 16 22  2  0
 21 23  1  0
M  END
>  <%Rank>  (276) 
20.992366

>  <N_hits>  (276) 
2

>  <submitter_name>  (276) 
nan

>  <original SMILES>  (276) 
nan

>  <∆G_unbound>  (276) 
4.167888

>  <∆G_bound>  (276) 
1.927489

>  <regarded>  (276) 
5CB5_0_P_δ,mArh-x0591_0_A_α

>  <ref_pdb>  (276) 
nan

>  <smiles>  (276) 
CNC(=O)C1C=CC(S(N)(=O)=O)C2(C1)NC1NCNC(N)C1N2

>  <submitter_email>  (276) 
nan

>  <disregarded>  (276) 


>  <LE>  (276) 
-0.097409

>  <submitter_institution>  (276) 
nan

>  <ref_mols>  (276) 
5CB5_0_P,mArh-x0591_0_A

>  <N_constrained_atoms>  (276) 
23.0

>  <ref_url>  (276) 
nan

>  <method>  (276) 
nan

>  <comRMSD>  (276) 
0.549175

>  <N_unconstrained_atoms>  (276) 
0.0

>  <∆∆G>  (276) 
-2.240399

>  <runtime>  (276) 
29.488143

>  <generation_date>  (276) 
nan

$$$$
5CMS_0_I_δ-5CB5_0_F_β
     RDKit          3D

 21 22  0  0  0  0  0  0  0  0999 V2000
   -3.9500   15.3260    1.7400 N   0  0  0  0  0  0  0  0  0  0  0  0
   -2.7850   15.4310    0.9440 C   0  0  2  0  0  0  0  0  0  0  0  0
   -2.7740   14.7470   -0.3550 C   0  0  2  0  0  0  0  0  0  0  0  0
   -1.6410   14.8700    1.6480 N   0  0  0  0  0  0  0  0  0  0  0  0
   -1.4820   15.2730   -1.0280 C   0  0  2  0  0  0  0  0  0  0  0  0
   -3.7540   15.1080   -1.3020 N   0  0  0  0  0  0  0  0  0  0  0  0
   -0.4030   14.9970    0.9670 C   0  0  0  0  0  0  0  0  0  0  0  0
   -1.7520   15.1830   -2.3920 N   0  0  0  0  0  0  0  0  0  0  0  0
   -3.0730   14.6700   -2.5460 C   0  0  0  0  0  0  0  0  0  0  0  0
   -0.4500   14.5020   -0.4190 N   0  0  0  0  0  0  0  0  0  0  0  0
   -1.3710   16.2400   -3.2570 C   0  0  0  0  0  0  0  0  0  0  0  0
   -1.3950   15.8100   -4.7400 C   0  0  0  0  0  0  0  0  0  0  0  0
   -0.7610   16.7460   -5.5240 O   0  0  0  0  0  0  0  0  0  0  0  0
   -1.5980   18.1730   -5.8500 P   0  0  0  0  0  0  0  0  0  0  0  0
   -1.5800   18.8830   -7.2290 O   0  0  0  0  0  0  0  0  0  0  0  0
   -2.7700   17.3410   -6.3860 O   0  0  0  0  0  0  0  0  0  0  0  0
   -2.3280   18.9380   -4.6590 O   0  0  0  0  0  0  0  0  0  0  0  0
   -0.3570   19.5080   -7.9270 P   0  0  0  0  0  0  0  0  0  0  0  0
   -1.1380   20.0620   -9.0640 O   0  0  0  0  0  0  0  0  0  0  0  0
    0.3830   18.5190   -9.0050 O   0  0  0  0  0  0  0  0  0  0  0  0
    0.4310   20.9410   -7.5740 O   0  0  0  0  0  0  0  0  0  0  0  0
  2  1  1  1
  2  3  1  0
  2  4  1  0
  3  5  1  0
  3  6  1  6
  4  7  1  0
  5  8  1  0
  6  9  1  0
  8  9  1  0
  5 10  1  6
  7 10  1  0
  8 11  1  0
 11 12  1  0
 12 13  1  0
 13 14  1  0
 14 15  1  0
 14 16  1  0
 14 17  1  0
 15 18  1  0
 18 19  1  0
 18 20  1  0
 18 21  1  0
M  CHG  2  16  -1  20  -1
M  END
>  <%Rank>  (277) 
21.068702

>  <N_hits>  (277) 
2

>  <submitter_name>  (277) 
nan

>  <original SMILES>  (277) 
nan

>  <∆G_unbound>  (277) 
2.389304

>  <∆G_bound>  (277) 
-5.759915

>  <regarded>  (277) 
5CMS_0_I_δ,5CB5_0_F_β

>  <ref_pdb>  (277) 
nan

>  <smiles>  (277) 
NC1NCNC2C1NCN2CCO[PH]([O-])(O)O[PH]([O-])(O)O

>  <submitter_email>  (277) 
nan

>  <disregarded>  (277) 


>  <LE>  (277) 
-0.388058

>  <submitter_institution>  (277) 
nan

>  <ref_mols>  (277) 
5CMS_0_I,5CB5_0_F

>  <N_constrained_atoms>  (277) 
19.0

>  <ref_url>  (277) 
nan

>  <method>  (277) 
nan

>  <comRMSD>  (277) 
0.570455

>  <N_unconstrained_atoms>  (277) 
2.0

>  <∆∆G>  (277) 
-8.149219

>  <runtime>  (277) 
33.632687

>  <generation_date>  (277) 
nan

$$$$
mArh-5cb5_F_1_F_β-5CB5_0_P_β
     RDKit          3D

  9  8  0  0  0  0  0  0  0  0999 V2000
   -1.6150   20.3630   -8.2870 O   0  0  0  0  0  0  0  0  0  0  0  0
   -0.2670   19.6220   -7.8860 P   0  0  0  0  0  0  0  0  0  0  0  0
   -0.4390   19.0680   -6.4440 O   0  0  0  0  0  0  0  0  0  0  0  0
    0.1650   18.6410   -8.8920 O   0  0  0  0  0  0  0  0  0  0  0  0
    0.7360   20.8550   -7.7550 O   0  0  0  0  0  0  0  0  0  0  0  0
   -1.6790   18.2820   -5.8750 P   0  0  0  0  0  0  0  0  0  0  0  0
   -1.0910   17.1130   -4.9720 O   0  0  0  0  0  0  0  0  0  0  0  0
   -2.6630   17.8100   -6.8820 O   0  0  0  0  0  0  0  0  0  0  0  0
   -2.2690   19.3270   -4.8390 O   0  0  0  0  0  0  0  0  0  0  0  0
  1  2  1  0
  2  3  1  0
  2  4  2  0
  2  5  1  0
  3  6  1  0
  6  7  1  0
  6  8  2  0
  6  9  1  0
M  END
>  <%Rank>  (278) 
21.145038

>  <N_hits>  (278) 
2

>  <submitter_name>  (278) 
nan

>  <original SMILES>  (278) 
nan

>  <∆G_unbound>  (278) 
0.687887

>  <∆G_bound>  (278) 
-8.633422

>  <regarded>  (278) 
mArh-5cb5_F_1_F_β,5CB5_0_P_β

>  <ref_pdb>  (278) 
nan

>  <smiles>  (278) 
O=P(O)(O)OP(=O)(O)O

>  <submitter_email>  (278) 
nan

>  <disregarded>  (278) 


>  <LE>  (278) 
-1.035701

>  <submitter_institution>  (278) 
nan

>  <ref_mols>  (278) 
mArh-5cb5_F_1_F,5CB5_0_P

>  <N_constrained_atoms>  (278) 
9.0

>  <ref_url>  (278) 
nan

>  <method>  (278) 
nan

>  <comRMSD>  (278) 
0.682168

>  <N_unconstrained_atoms>  (278) 
0.0

>  <∆∆G>  (278) 
-9.32131

>  <runtime>  (278) 
26.395449

>  <generation_date>  (278) 
nan

$$$$
5CB5_0_M_β-mArh-x0290_0_A_α
     RDKit          3D

 24 24  0  0  0  0  0  0  0  0999 V2000
   -1.6370   20.3130   -8.3200 O   0  0  0  0  0  0  0  0  0  0  0  0
   -0.2780   19.8450   -7.8130 P   0  0  0  0  0  0  0  0  0  0  0  0
   -0.7280   19.4240   -6.3600 O   0  0  0  0  0  0  0  0  0  0  0  0
    0.0610   18.6650   -8.8760 O   0  0  0  0  0  0  0  0  0  0  0  0
    1.1630   19.8580   -7.3140 O   0  0  0  0  0  0  0  0  0  0  0  0
   -1.7950   18.2720   -5.9150 P   0  0  0  0  0  0  0  0  0  0  0  0
   -0.8110   17.0720   -5.7200 O   0  0  0  0  0  0  0  0  0  0  0  0
   -2.7060   17.3660   -6.9310 O   0  0  0  0  0  0  0  0  0  0  0  0
   -2.1620   18.2820   -4.3800 O   0  0  0  0  0  0  0  0  0  0  0  0
   -1.2800   15.7570   -5.2850 C   0  0  0  0  0  0  0  0  0  0  0  0
   -1.3300   15.7300   -3.8090 C   0  0  0  0  0  0  0  0  0  0  0  0
   -1.3280   14.4380   -2.9990 C   0  0  0  0  0  0  0  0  0  0  0  0
   -1.4550   14.5830   -1.4660 C   0  0  0  0  0  0  0  0  0  0  0  0
   -0.3120   14.5610   -0.6950 C   0  0  0  0  0  0  0  0  0  0  0  0
   -2.6650   14.7200   -0.8180 C   0  0  0  0  0  0  0  0  0  0  0  0
   -0.4670   14.6730    0.7070 C   0  0  0  0  0  0  0  0  0  0  0  0
   -2.7980   14.8350    0.6090 C   0  0  0  0  0  0  0  0  0  0  0  0
   -4.0670   14.9770    1.2020 N   0  0  0  0  0  0  0  0  0  0  0  0
   -1.6530   14.7980    1.2770 N   0  0  0  0  0  0  0  0  0  0  0  0
   -5.2890   14.4210    0.8510 C   0  0  0  0  0  0  0  0  0  0  0  0
   -5.3690   14.1050   -0.4440 O   0  0  0  0  0  0  0  0  0  0  0  0
   -6.5080   14.1060    1.5690 C   0  0  0  0  0  0  0  0  0  0  0  0
   -7.6870   13.7620    0.8610 N   0  0  0  0  0  0  0  0  0  0  0  0
   -8.5680   14.9390    0.7430 C   0  0  0  0  0  0  0  0  0  0  0  0
  1  2  1  0
  2  3  1  0
  2  4  1  0
  2  5  1  0
  3  6  1  0
  6  7  1  0
  6  8  1  0
  6  9  1  0
  7 10  1  0
 10 11  1  0
 11 12  1  0
 12 13  1  0
 13 14  2  0
 13 15  1  0
 14 16  1  0
 15 17  2  0
 17 18  1  0
 16 19  2  0
 17 19  1  0
 18 20  1  0
 20 21  2  0
 20 22  1  0
 22 23  1  0
 23 24  1  0
M  CHG  2   4  -1   8  -1
M  END
>  <%Rank>  (279) 
21.221374

>  <N_hits>  (279) 
2

>  <submitter_name>  (279) 
nan

>  <original SMILES>  (279) 
nan

>  <∆G_unbound>  (279) 
1.711925

>  <∆G_bound>  (279) 
-7.921593

>  <regarded>  (279) 
5CB5_0_M_β,mArh-x0290_0_A_α

>  <ref_pdb>  (279) 
nan

>  <smiles>  (279) 
CNCC(=O)Nc1cc(CCCO[PH]([O-])(O)O[PH]([O-])(O)O)ccn1

>  <submitter_email>  (279) 
nan

>  <disregarded>  (279) 


>  <LE>  (279) 
-0.401397

>  <submitter_institution>  (279) 
nan

>  <ref_mols>  (279) 
5CB5_0_M,mArh-x0290_0_A

>  <N_constrained_atoms>  (279) 
22.0

>  <ref_url>  (279) 
nan

>  <method>  (279) 
nan

>  <comRMSD>  (279) 
0.640046

>  <N_unconstrained_atoms>  (279) 
2.0

>  <∆∆G>  (279) 
-9.633517

>  <runtime>  (279) 
29.003698

>  <generation_date>  (279) 
nan

$$$$
mArh-5cb5_M_1_M_γ-5CB5_0_H_β
     RDKit          3D

 16 16  0  0  0  0  0  0  0  0999 V2000
   -0.9520   12.8020   -4.0430 O   0  0  0  0  0  0  0  0  0  0  0  0
   -0.2380   13.9880   -3.9250 C   0  0  2  0  0  0  0  0  0  0  0  0
   -0.9560   15.0470   -3.1520 C   0  0  0  0  0  0  0  0  0  0  0  0
   -0.0670   14.7080   -5.2180 C   0  0  2  0  0  0  0  0  0  0  0  0
    0.9630   14.0440   -5.8810 O   0  0  0  0  0  0  0  0  0  0  0  0
   -0.2600   16.2230   -3.5000 O   0  0  0  0  0  0  0  0  0  0  0  0
    0.3490   16.0670   -4.7430 C   0  0  2  0  0  0  0  0  0  0  0  0
    0.0750   17.3210   -5.6420 C   0  0  0  0  0  0  0  0  0  0  0  0
   -1.5190   18.0620   -5.7300 P   0  0  0  0  0  0  0  0  0  0  0  0
   -1.2610   19.3370   -6.5720 O   0  0  0  0  0  0  0  0  0  0  0  0
   -2.6270   17.6660   -6.9560 O   0  0  0  0  0  0  0  0  0  0  0  0
   -2.0390   19.0200   -4.5770 O   0  0  0  0  0  0  0  0  0  0  0  0
   -0.1170   19.5930   -7.6620 P   0  0  0  0  0  0  0  0  0  0  0  0
   -1.0050   20.5350   -8.4980 O   0  0  0  0  0  0  0  0  0  0  0  0
    1.0170   20.8450   -7.5600 O   0  0  0  0  0  0  0  0  0  0  0  0
    0.0740   18.5020   -8.8610 O   0  0  0  0  0  0  0  0  0  0  0  0
  2  1  1  6
  2  3  1  0
  2  4  1  0
  4  5  1  6
  3  6  1  0
  4  7  1  0
  6  7  1  0
  7  8  1  6
  8  9  1  0
  9 10  1  0
  9 11  1  0
  9 12  1  0
 10 13  1  0
 13 14  1  0
 13 15  1  0
 13 16  1  0
M  CHG  2  11  -1  15  -1
M  END
>  <%Rank>  (280) 
21.29771

>  <N_hits>  (280) 
2

>  <submitter_name>  (280) 
nan

>  <original SMILES>  (280) 
nan

>  <∆G_unbound>  (280) 
0.683631

>  <∆G_bound>  (280) 
-7.361741

>  <regarded>  (280) 
mArh-5cb5_M_1_M_γ,5CB5_0_H_β

>  <ref_pdb>  (280) 
nan

>  <smiles>  (280) 
[O-][PH](O)(O)O[PH]([O-])(O)CC1OCC(O)C1O

>  <submitter_email>  (280) 
nan

>  <disregarded>  (280) 


>  <LE>  (280) 
-0.502836

>  <submitter_institution>  (280) 
nan

>  <ref_mols>  (280) 
mArh-5cb5_M_1_M,5CB5_0_H

>  <N_constrained_atoms>  (280) 
16.0

>  <ref_url>  (280) 
nan

>  <method>  (280) 
nan

>  <comRMSD>  (280) 
0.619647

>  <N_unconstrained_atoms>  (280) 
0.0

>  <∆∆G>  (280) 
-8.045373

>  <runtime>  (280) 
29.855132

>  <generation_date>  (280) 
nan

$$$$
5CB5_0_H_δ-mArh-3q6z_0_A_β
     RDKit          3D

 21 22  0  0  0  0  0  0  0  0999 V2000
   -4.1120   15.1580    1.5530 N   0  0  0  0  0  0  0  0  0  0  0  0
   -2.8690   15.6410    0.9860 C   0  0  2  0  0  0  0  0  0  0  0  0
   -2.7640   15.5720   -0.5580 C   0  0  1  0  0  0  0  0  0  0  0  0
   -1.8650   14.8750    1.6860 N   0  0  0  0  0  0  0  0  0  0  0  0
   -1.3440   15.2160   -1.0440 C   0  0  2  0  0  0  0  0  0  0  0  0
   -3.6240   14.6240   -1.2720 N   0  0  0  0  0  0  0  0  0  0  0  0
   -0.5500   15.0290    1.1090 C   0  0  0  0  0  0  0  0  0  0  0  0
   -1.5360   14.3270   -2.1680 N   0  0  0  0  0  0  0  0  0  0  0  0
   -2.9310   14.4620   -2.5460 C   0  0  2  0  0  0  0  0  0  0  0  0
   -0.5590   14.4160   -0.1610 N   0  0  0  0  0  0  0  0  0  0  0  0
   -3.0860   15.6340   -3.5190 C   0  0  0  0  0  0  0  0  0  0  0  0
   -1.7340   16.3250   -3.8730 C   0  0  0  0  0  0  0  0  0  0  0  0
   -1.8890   17.6820   -4.4030 N   0  0  0  0  0  0  0  0  0  0  0  0
   -1.2380   17.9480   -5.8840 P   0  0  0  0  0  0  0  0  0  0  0  0
   -0.7980   19.4000   -6.3140 O   0  0  0  0  0  0  0  0  0  0  0  0
   -0.0250   16.9840   -6.1320 O   0  0  0  0  0  0  0  0  0  0  0  0
   -2.4120   17.5070   -6.8640 O   0  0  0  0  0  0  0  0  0  0  0  0
   -0.3670   19.7820   -7.8110 P   0  0  0  0  0  0  0  0  0  0  0  0
   -1.6230   20.6360   -8.2950 O   0  0  0  0  0  0  0  0  0  0  0  0
    0.0040   18.6430   -8.7000 O   0  0  0  0  0  0  0  0  0  0  0  0
    0.7700   20.8910   -7.6240 O   0  0  0  0  0  0  0  0  0  0  0  0
  2  1  1  6
  2  3  1  0
  2  4  1  0
  3  5  1  0
  3  6  1  1
  4  7  1  0
  5  8  1  6
  6  9  1  0
  8  9  1  0
  5 10  1  0
  7 10  1  0
  9 11  1  6
 11 12  1  0
 12 13  1  0
 13 14  2  3
 14 15  1  0
 14 16  1  0
 14 17  1  0
 15 18  1  0
 18 19  1  0
 18 20  2  0
 18 21  1  0
M  END
>  <%Rank>  (281) 
21.374046

>  <N_hits>  (281) 
2

>  <submitter_name>  (281) 
nan

>  <original SMILES>  (281) 
nan

>  <∆G_unbound>  (281) 
3.089299

>  <∆G_bound>  (281) 
-9.194067

>  <regarded>  (281) 
5CB5_0_H_δ,mArh-3q6z_0_A_β

>  <ref_pdb>  (281) 
nan

>  <smiles>  (281) 
NC1NCNC2NC(CCN=P(O)(O)OP(=O)(O)O)NC12

>  <submitter_email>  (281) 
nan

>  <disregarded>  (281) 


>  <LE>  (281) 
-0.584922

>  <submitter_institution>  (281) 
nan

>  <ref_mols>  (281) 
5CB5_0_H,mArh-3q6z_0_A

>  <N_constrained_atoms>  (281) 
19.0

>  <ref_url>  (281) 
nan

>  <method>  (281) 
nan

>  <comRMSD>  (281) 
0.672164

>  <N_unconstrained_atoms>  (281) 
2.0

>  <∆∆G>  (281) 
-12.283366

>  <runtime>  (281) 
35.566387

>  <generation_date>  (281) 
nan

$$$$
6MEA_0_B_γ-mArh-EU0046_0_A_α
     RDKit          3D

 17 18  0  0  0  0  0  0  0  0999 V2000
   -1.2440   12.4410   -4.8680 O   0  0  0  0  0  0  0  0  0  0  0  0
   -1.0300   13.8460   -4.7980 C   0  0  1  0  0  0  0  0  0  0  0  0
   -0.5720   14.3480   -3.4590 C   0  0  2  0  0  0  0  0  0  0  0  0
    0.2210   14.3160   -5.4800 C   0  0  2  0  0  0  0  0  0  0  0  0
    1.3500   13.6610   -4.9020 O   0  0  0  0  0  0  0  0  0  0  0  0
   -1.6070   14.4570   -2.5180 C   0  0  0  0  0  0  0  0  0  0  0  0
   -0.0170   15.6540   -3.6340 O   0  0  0  0  0  0  0  0  0  0  0  0
    0.0190   15.7760   -5.0490 C   0  0  1  0  0  0  0  0  0  0  0  0
    0.9750   16.8680   -5.4440 C   0  0  0  0  0  0  0  0  0  0  0  0
   -2.1700   14.5460   -1.5450 C   0  0  0  0  0  0  0  0  0  0  0  0
   -2.3710   14.6220   -0.2100 C   0  0  0  0  0  0  0  0  0  0  0  0
   -1.2710   14.7720    0.5550 C   0  0  0  0  0  0  0  0  0  0  0  0
   -3.4760   14.5800    0.6410 C   0  0  0  0  0  0  0  0  0  0  0  0
    0.1630   14.8850    0.2300 C   0  0  0  0  0  0  0  0  0  0  0  0
   -4.7550   14.4420    0.2860 N   0  0  0  0  0  0  0  0  0  0  0  0
   -1.7320   14.8020    1.7800 N   0  0  0  0  0  0  0  0  0  0  0  0
   -3.0670   14.6910    1.8880 N   0  0  0  0  0  0  0  0  0  0  0  0
  2  1  1  1
  2  3  1  0
  2  4  1  0
  4  5  1  1
  3  6  1  1
  3  7  1  0
  4  8  1  0
  7  8  1  0
  8  9  1  1
  6 10  3  0
 10 11  1  0
 11 12  2  0
 11 13  1  0
 12 14  1  0
 13 15  1  0
 12 16  1  0
 13 17  2  0
 16 17  1  0
M  END
>  <%Rank>  (282) 
21.450382

>  <N_hits>  (282) 
2

>  <submitter_name>  (282) 
nan

>  <original SMILES>  (282) 
nan

>  <∆G_unbound>  (282) 
0.03949

>  <∆G_bound>  (282) 
-4.806885

>  <regarded>  (282) 
6MEA_0_B_γ,mArh-EU0046_0_A_α

>  <ref_pdb>  (282) 
nan

>  <smiles>  (282) 
Cc1[nH]nc(N)c1C#CC1OC(C)C(O)C1O

>  <submitter_email>  (282) 
nan

>  <disregarded>  (282) 


>  <LE>  (282) 
-0.285081

>  <submitter_institution>  (282) 
nan

>  <ref_mols>  (282) 
6MEA_0_B,mArh-EU0046_0_A

>  <N_constrained_atoms>  (282) 
17.0

>  <ref_url>  (282) 
nan

>  <method>  (282) 
nan

>  <comRMSD>  (282) 
0.533634

>  <N_unconstrained_atoms>  (282) 
0.0

>  <∆∆G>  (282) 
-4.846375

>  <runtime>  (282) 
33.306992

>  <generation_date>  (282) 
nan

$$$$
mArh-x0685_0_A_α-5CB5_0_P_γ
     RDKit          3D

 19 20  0  0  0  0  0  0  0  0999 V2000
   -6.3630   15.0150    2.6490 N   0  0  0  0  0  0  0  0  0  0  0  0
   -7.7840   14.7700    2.5000 C   0  0  0  0  0  0  0  0  0  0  0  0
   -8.1030   13.3710    2.9860 C   0  0  0  0  0  0  0  0  0  0  0  0
   -5.5690   14.9720    1.5040 C   0  0  0  0  0  0  0  0  0  0  0  0
   -4.1860   15.1060    1.5630 C   0  0  0  0  0  0  0  0  0  0  0  0
   -6.2310   14.8080    0.3440 N   0  0  0  0  0  0  0  0  0  0  0  0
   -3.4560   15.0740    0.3910 C   0  0  0  0  0  0  0  0  0  0  0  0
   -5.4970   14.7830   -0.7880 C   0  0  0  0  0  0  0  0  0  0  0  0
   -4.1220   14.9140   -0.8040 C   0  0  0  0  0  0  0  0  0  0  0  0
   -3.3830   14.8890   -1.9970 C   0  0  0  0  0  0  0  0  0  0  0  0
   -2.6890   14.8870   -2.9480 C   0  0  0  0  0  0  0  0  0  0  0  0
   -1.7810   14.9400   -4.0680 C   0  0  1  0  0  0  0  0  0  0  0  0
   -0.7480   15.8700   -3.8210 O   0  0  0  0  0  0  0  0  0  0  0  0
   -1.0400   13.6610   -4.4790 C   0  0  2  0  0  0  0  0  0  0  0  0
   -0.4060   12.9260   -3.4350 O   0  0  0  0  0  0  0  0  0  0  0  0
   -0.0880   15.7670   -5.0700 C   0  0  2  0  0  0  0  0  0  0  0  0
    0.0790   14.2510   -5.3190 C   0  0  1  0  0  0  0  0  0  0  0  0
    1.1730   16.5590   -5.0130 C   0  0  0  0  0  0  0  0  0  0  0  0
    1.3340   13.7740   -4.8300 O   0  0  0  0  0  0  0  0  0  0  0  0
  1  2  1  0
  2  3  1  0
  1  4  1  0
  4  5  2  0
  4  6  1  0
  5  7  1  0
  6  8  2  0
  7  9  2  0
  8  9  1  0
  9 10  1  0
 10 11  3  0
 12 11  1  1
 12 13  1  0
 12 14  1  0
 14 15  1  1
 13 16  1  0
 14 17  1  0
 16 17  1  0
 16 18  1  1
 17 19  1  1
M  END
>  <%Rank>  (283) 
21.526718

>  <N_hits>  (283) 
2

>  <submitter_name>  (283) 
nan

>  <original SMILES>  (283) 
nan

>  <∆G_unbound>  (283) 
0.049408

>  <∆G_bound>  (283) 
-7.292702

>  <regarded>  (283) 
mArh-x0685_0_A_α,5CB5_0_P_γ

>  <ref_pdb>  (283) 
nan

>  <smiles>  (283) 
CCNc1ccc(C#CC2OC(C)C(O)C2O)cn1

>  <submitter_email>  (283) 
nan

>  <disregarded>  (283) 


>  <LE>  (283) 
-0.386427

>  <submitter_institution>  (283) 
nan

>  <ref_mols>  (283) 
mArh-x0685_0_A,5CB5_0_P

>  <N_constrained_atoms>  (283) 
19.0

>  <ref_url>  (283) 
nan

>  <method>  (283) 
nan

>  <comRMSD>  (283) 
0.626031

>  <N_unconstrained_atoms>  (283) 
0.0

>  <∆∆G>  (283) 
-7.342111

>  <runtime>  (283) 
34.994696

>  <generation_date>  (283) 
nan

$$$$
mArh-5cms_Q_16_Q_β-5CMS_0_M_δ
     RDKit          3D

 21 22  0  0  0  0  0  0  0  0999 V2000
   -1.1040   20.5810   -6.8480 O   0  0  0  0  0  0  0  0  0  0  0  0
   -0.5740   19.3460   -7.6910 P   0  0  0  0  0  0  0  0  0  0  0  0
   -1.5530   18.1560   -7.3720 O   0  0  0  0  0  0  0  0  0  0  0  0
    0.8540   19.0060   -7.5780 O   0  0  0  0  0  0  0  0  0  0  0  0
   -0.9890   19.8140   -9.1310 O   0  0  0  0  0  0  0  0  0  0  0  0
   -2.0130   17.6810   -5.9410 P   0  0  2  0  0  0  0  0  0  0  0  0
   -0.7520   17.0350   -5.1970 O   0  0  0  0  0  0  0  0  0  0  0  0
   -3.1860   16.7690   -6.0620 O   0  0  0  0  0  0  0  0  0  0  0  0
   -2.2180   19.0380   -5.1250 O   0  0  0  0  0  0  0  0  0  0  0  0
   -0.8900   16.7300   -3.8070 C   0  0  0  0  0  0  0  0  0  0  0  0
   -0.7930   15.2130   -3.5250 C   0  0  0  0  0  0  0  0  0  0  0  0
   -1.7370   14.7010   -2.4860 N   0  0  0  0  0  0  0  0  0  0  0  0
   -1.5310   15.1270   -1.1070 C   0  0  1  0  0  0  0  0  0  0  0  0
   -3.1570   15.0600   -2.7240 C   0  0  0  0  0  0  0  0  0  0  0  0
   -2.8690   14.8250   -0.4460 C   0  0  2  0  0  0  0  0  0  0  0  0
   -3.8340   15.3160   -1.4330 N   0  0  0  0  0  0  0  0  0  0  0  0
   -0.4480   14.4920   -0.3820 N   0  0  0  0  0  0  0  0  0  0  0  0
   -0.4250   15.0510    0.9680 C   0  0  0  0  0  0  0  0  0  0  0  0
   -2.7970   15.4620    0.9290 C   0  0  1  0  0  0  0  0  0  0  0  0
   -4.0320   15.4760    1.7010 N   0  0  0  0  0  0  0  0  0  0  0  0
   -1.7020   14.8620    1.6470 N   0  0  0  0  0  0  0  0  0  0  0  0
  1  2  1  0
  2  3  1  0
  2  4  2  0
  2  5  1  0
  3  6  1  0
  6  7  1  0
  6  8  2  0
  6  9  1  1
  7 10  1  0
 10 11  1  0
 11 12  1  0
 12 13  1  0
 12 14  1  0
 13 15  1  0
 14 16  1  0
 15 16  1  6
 13 17  1  1
 17 18  1  0
 15 19  1  0
 19 20  1  1
 18 21  1  0
 19 21  1  0
M  END
>  <%Rank>  (284) 
21.603053

>  <N_hits>  (284) 
2

>  <submitter_name>  (284) 
nan

>  <original SMILES>  (284) 
nan

>  <∆G_unbound>  (284) 
1.152563

>  <∆G_bound>  (284) 
-7.514801

>  <regarded>  (284) 
mArh-5cms_Q_16_Q_β,5CMS_0_M_δ

>  <ref_pdb>  (284) 
nan

>  <smiles>  (284) 
NC1NCNC2C1NCN2CCOP(=O)(O)OP(=O)(O)O

>  <submitter_email>  (284) 
nan

>  <disregarded>  (284) 


>  <LE>  (284) 
-0.412732

>  <submitter_institution>  (284) 
nan

>  <ref_mols>  (284) 
mArh-5cms_Q_16_Q,5CMS_0_M

>  <N_constrained_atoms>  (284) 
19.0

>  <ref_url>  (284) 
nan

>  <method>  (284) 
nan

>  <comRMSD>  (284) 
0.587307

>  <N_unconstrained_atoms>  (284) 
2.0

>  <∆∆G>  (284) 
-8.667364

>  <runtime>  (284) 
33.817282

>  <generation_date>  (284) 
nan

$$$$
mArh-4iqy_B_0_B_γ-mArh-5cb5_H_0_H_β
     RDKit          3D

 16 16  0  0  0  0  0  0  0  0999 V2000
   -1.4290   12.7020   -3.7360 O   0  0  0  0  0  0  0  0  0  0  0  0
   -0.3020   13.5490   -3.6150 C   0  0  2  0  0  0  0  0  0  0  0  0
   -0.4640   14.6400   -2.5530 C   0  0  0  0  0  0  0  0  0  0  0  0
    0.0050   14.3290   -4.8920 C   0  0  2  0  0  0  0  0  0  0  0  0
    1.4340   14.2630   -5.0160 O   0  0  0  0  0  0  0  0  0  0  0  0
   -0.1000   15.8830   -3.1750 O   0  0  0  0  0  0  0  0  0  0  0  0
   -0.5260   15.7230   -4.5330 C   0  0  1  0  0  0  0  0  0  0  0  0
   -0.0610   16.9320   -5.3490 C   0  0  0  0  0  0  0  0  0  0  0  0
   -1.3950   18.0390   -5.9090 P   0  0  1  0  0  0  0  0  0  0  0  0
   -0.8110   19.3910   -6.4570 O   0  0  0  0  0  0  0  0  0  0  0  0
   -2.4510   17.4310   -6.7800 O   0  0  0  0  0  0  0  0  0  0  0  0
   -1.9900   18.5850   -4.5490 O   0  0  0  0  0  0  0  0  0  0  0  0
   -0.1280   19.8720   -7.7650 P   0  0  0  0  0  0  0  0  0  0  0  0
   -1.3430   20.5650   -8.5300 O   0  0  0  0  0  0  0  0  0  0  0  0
    1.0700   20.7480   -7.6220 O   0  0  0  0  0  0  0  0  0  0  0  0
    0.0500   18.5810   -8.7010 O   0  0  0  0  0  0  0  0  0  0  0  0
  2  1  1  6
  2  3  1  0
  2  4  1  0
  4  5  1  1
  3  6  1  0
  4  7  1  0
  6  7  1  0
  7  8  1  6
  8  9  1  0
  9 10  1  0
  9 11  2  0
  9 12  1  1
 10 13  1  0
 13 14  1  0
 13 15  2  0
 13 16  1  0
M  END
>  <%Rank>  (285) 
21.679389

>  <N_hits>  (285) 
2

>  <submitter_name>  (285) 
nan

>  <original SMILES>  (285) 
nan

>  <∆G_unbound>  (285) 
1.057928

>  <∆G_bound>  (285) 
-9.257325

>  <regarded>  (285) 
mArh-4iqy_B_0_B_γ,mArh-5cb5_H_0_H_β

>  <ref_pdb>  (285) 
nan

>  <smiles>  (285) 
O=P(O)(O)OP(=O)(O)CC1OCC(O)C1O

>  <submitter_email>  (285) 
nan

>  <disregarded>  (285) 


>  <LE>  (285) 
-0.644703

>  <submitter_institution>  (285) 
nan

>  <ref_mols>  (285) 
mArh-4iqy_B_0_B,mArh-5cb5_H_0_H

>  <N_constrained_atoms>  (285) 
16.0

>  <ref_url>  (285) 
nan

>  <method>  (285) 
nan

>  <comRMSD>  (285) 
0.691917

>  <N_unconstrained_atoms>  (285) 
0.0

>  <∆∆G>  (285) 
-10.315253

>  <runtime>  (285) 
37.258128

>  <generation_date>  (285) 
nan

$$$$
5CB5_0_E_β-6WOJ_0_A_δ
     RDKit          3D

 21 22  0  0  0  0  0  0  0  0999 V2000
   -1.5260   20.6450   -8.2700 O   0  0  0  0  0  0  0  0  0  0  0  0
   -0.4490   19.5970   -7.9890 P   0  0  0  0  0  0  0  0  0  0  0  0
   -1.0310   19.2890   -6.4840 O   0  0  0  0  0  0  0  0  0  0  0  0
    0.6340   20.7990   -8.1020 O   0  0  0  0  0  0  0  0  0  0  0  0
    0.6530   18.6100   -7.7440 O   0  0  0  0  0  0  0  0  0  0  0  0
   -1.8070   18.0850   -5.9740 P   0  0  0  0  0  0  0  0  0  0  0  0
   -0.5890   17.1530   -5.5470 O   0  0  0  0  0  0  0  0  0  0  0  0
   -2.6880   17.9170   -7.2790 O   0  0  0  0  0  0  0  0  0  0  0  0
   -2.3720   19.2350   -4.8920 O   0  0  0  0  0  0  0  0  0  0  0  0
   -0.8040   15.9650   -4.8420 C   0  0  0  0  0  0  0  0  0  0  0  0
   -1.9800   16.1380   -3.8890 C   0  0  0  0  0  0  0  0  0  0  0  0
   -2.2480   14.9320   -3.0190 C   0  0  1  0  0  0  0  0  0  0  0  0
   -1.0540   14.3820   -2.4440 N   0  0  0  0  0  0  0  0  0  0  0  0
   -3.1000   15.2830   -1.8900 N   0  0  0  0  0  0  0  0  0  0  0  0
   -1.3070   14.0360   -1.0760 C   0  0  2  0  0  0  0  0  0  0  0  0
   -2.6690   14.4700   -0.7750 C   0  0  1  0  0  0  0  0  0  0  0  0
   -0.3230   14.6450   -0.2460 N   0  0  0  0  0  0  0  0  0  0  0  0
   -2.7900   15.1620    0.5140 C   0  0  1  0  0  0  0  0  0  0  0  0
   -4.1400   15.0840    1.0620 N   0  0  0  0  0  0  0  0  0  0  0  0
   -0.5760   14.2540    1.1290 C   0  0  0  0  0  0  0  0  0  0  0  0
   -1.9020   14.7060    1.5370 N   0  0  0  0  0  0  0  0  0  0  0  0
  1  2  1  0
  2  3  1  0
  2  4  1  0
  2  5  1  0
  3  6  1  0
  6  7  1  0
  6  8  1  0
  6  9  1  0
  7 10  1  0
 10 11  1  0
 12 11  1  1
 12 13  1  0
 12 14  1  0
 15 13  1  6
 16 14  1  6
 15 16  1  0
 15 17  1  0
 16 18  1  0
 18 19  1  1
 17 20  1  0
 18 21  1  0
 20 21  1  0
M  CHG  2   4  -1   8  -1
M  END
>  <%Rank>  (286) 
21.755725

>  <N_hits>  (286) 
2

>  <submitter_name>  (286) 
nan

>  <original SMILES>  (286) 
nan

>  <∆G_unbound>  (286) 
3.447241

>  <∆G_bound>  (286) 
-6.082888

>  <regarded>  (286) 
5CB5_0_E_β,6WOJ_0_A_δ

>  <ref_pdb>  (286) 
nan

>  <smiles>  (286) 
NC1NCNC2NC(CCO[PH]([O-])(O)O[PH]([O-])(O)O)NC12

>  <submitter_email>  (286) 
nan

>  <disregarded>  (286) 


>  <LE>  (286) 
-0.453816

>  <submitter_institution>  (286) 
nan

>  <ref_mols>  (286) 
5CB5_0_E,6WOJ_0_A

>  <N_constrained_atoms>  (286) 
19.0

>  <ref_url>  (286) 
nan

>  <method>  (286) 
nan

>  <comRMSD>  (286) 
0.608072

>  <N_unconstrained_atoms>  (286) 
2.0

>  <∆∆G>  (286) 
-9.53013

>  <runtime>  (286) 
31.874275

>  <generation_date>  (286) 
nan

$$$$
mArh-6mea_B_0_B_α-mArh-x0766_0_A_α
     RDKit          3D

 27 29  0  0  0  0  0  0  0  0999 V2000
   -1.9380   21.8480   -8.0620 C   0  0  0  0  0  0  0  0  0  0  0  0
   -3.3250   22.2460   -8.5450 C   0  0  1  0  0  0  0  0  0  0  0  0
   -4.3440   21.3600   -8.1020 O   0  0  0  0  0  0  0  0  0  0  0  0
   -3.7660   23.5990   -8.0430 C   0  0  1  0  0  0  0  0  0  0  0  0
   -4.7150   24.1590   -8.9430 O   0  0  0  0  0  0  0  0  0  0  0  0
   -4.7870   21.7950   -6.8140 C   0  0  2  0  0  0  0  0  0  0  0  0
   -4.3550   23.2730   -6.6630 C   0  0  2  0  0  0  0  0  0  0  0  0
   -4.1400   20.9530   -5.8460 O   0  0  0  0  0  0  0  0  0  0  0  0
   -5.4710   24.1650   -6.4290 O   0  0  0  0  0  0  0  0  0  0  0  0
   -2.8960   20.4390   -6.3790 C   0  0  0  0  0  0  0  0  0  0  0  0
   -2.0760   19.3660   -5.6200 C   0  0  0  0  0  0  0  0  0  0  0  0
   -2.2010   17.8770   -6.0550 C   0  0  0  0  0  0  0  0  0  0  0  0
   -1.7060   16.8600   -4.9920 C   0  0  0  0  0  0  0  0  0  0  0  0
   -2.6850   15.7070   -4.6010 C   0  0  0  0  0  0  0  0  0  0  0  0
   -2.5460   15.2390   -3.1370 C   0  0  0  0  0  0  0  0  0  0  0  0
   -1.4220   14.7510   -2.4510 C   0  0  0  0  0  0  0  0  0  0  0  0
   -3.9110   15.2970   -2.0830 S   0  0  0  0  0  0  0  0  0  0  0  0
   -0.0400   14.5590   -3.0240 C   0  0  1  0  0  0  0  0  0  0  0  0
   -1.7300   14.4510   -1.0790 C   0  0  0  0  0  0  0  0  0  0  0  0
   -3.0330   14.7030   -0.7520 C   0  0  0  0  0  0  0  0  0  0  0  0
    0.1410   13.2750   -3.8430 C   0  0  2  0  0  0  0  0  0  0  0  0
    0.4460   15.6840   -3.9070 C   0  0  0  0  0  0  0  0  0  0  0  0
    0.5370   12.2030   -2.8620 C   0  0  0  0  0  0  0  0  0  0  0  0
    1.2690   13.5820   -4.8430 C   0  0  0  0  0  0  0  0  0  0  0  0
    1.5500   15.0790   -4.7280 C   0  0  0  0  0  0  0  0  0  0  0  0
    1.4010   12.3020   -2.0180 O   0  0  0  0  0  0  0  0  0  0  0  0
   -0.1780   11.0670   -2.9770 O   0  0  0  0  0  0  0  0  0  0  0  0
  2  1  1  1
  2  3  1  0
  2  4  1  0
  4  5  1  6
  3  6  1  0
  4  7  1  0
  6  7  1  0
  6  8  1  1
  7  9  1  6
  8 10  1  0
 10 11  1  0
 11 12  1  0
 12 13  1  0
 13 14  1  0
 14 15  1  0
 15 16  2  0
 15 17  1  0
 18 16  1  6
 16 19  1  0
 17 20  1  0
 19 20  2  0
 18 21  1  0
 18 22  1  0
 21 23  1  1
 21 24  1  0
 22 25  1  0
 24 25  1  0
 23 26  2  0
 23 27  1  0
M  END
>  <%Rank>  (287) 
21.832061

>  <N_hits>  (287) 
2

>  <submitter_name>  (287) 
nan

>  <original SMILES>  (287) 
nan

>  <∆G_unbound>  (287) 
0.256126

>  <∆G_bound>  (287) 
-11.763813

>  <regarded>  (287) 
mArh-6mea_B_0_B_α,mArh-x0766_0_A_α

>  <ref_pdb>  (287) 
nan

>  <smiles>  (287) 
CC1OC(OCCCCCc2sccc2C2CCCC2C(=O)O)C(O)C1O

>  <submitter_email>  (287) 
nan

>  <disregarded>  (287) 


>  <LE>  (287) 
-0.445183

>  <submitter_institution>  (287) 
nan

>  <ref_mols>  (287) 
mArh-6mea_B_0_B,mArh-x0766_0_A

>  <N_constrained_atoms>  (287) 
22.0

>  <ref_url>  (287) 
nan

>  <method>  (287) 
nan

>  <comRMSD>  (287) 
0.598417

>  <N_unconstrained_atoms>  (287) 
5.0

>  <∆∆G>  (287) 
-12.019938

>  <runtime>  (287) 
54.363361

>  <generation_date>  (287) 
nan

$$$$
mArh-5cb5_P_0_P_α-3Q6Z_0_A_β
     RDKit          3D

 17 17  0  0  0  0  0  0  0  0999 V2000
   -1.9320   21.3930   -8.6570 C   0  0  0  0  0  0  0  0  0  0  0  0
   -0.7030   20.2660   -8.1290 P   0  0  0  0  0  0  0  0  0  0  0  0
   -1.1170   19.8540   -6.6930 O   0  0  0  0  0  0  0  0  0  0  0  0
   -3.1550   21.8900   -7.9690 C   0  0  2  0  0  0  0  0  0  0  0  0
   -0.6730   18.6820   -8.5280 O   0  0  0  0  0  0  0  0  0  0  0  0
    0.7270   20.8950   -7.5140 O   0  0  0  0  0  0  0  0  0  0  0  0
   -4.3800   21.3690   -8.2080 O   0  0  0  0  0  0  0  0  0  0  0  0
   -3.4760   23.3690   -8.0220 C   0  0  1  0  0  0  0  0  0  0  0  0
   -4.1540   23.8180   -9.1280 O   0  0  0  0  0  0  0  0  0  0  0  0
   -1.4330   18.2740   -6.2580 P   0  0  0  0  0  0  0  0  0  0  0  0
   -5.1310   21.9480   -7.2140 C   0  0  2  0  0  0  0  0  0  0  0  0
   -4.5370   23.3070   -6.9070 C   0  0  2  0  0  0  0  0  0  0  0  0
   -5.1240   21.2650   -6.0020 O   0  0  0  0  0  0  0  0  0  0  0  0
   -5.4500   24.3170   -7.1250 O   0  0  0  0  0  0  0  0  0  0  0  0
   -0.2700   17.3440   -5.4680 O   0  0  0  0  0  0  0  0  0  0  0  0
   -1.9460   18.7090   -4.8910 O   0  0  0  0  0  0  0  0  0  0  0  0
   -2.7440   17.5080   -6.7670 O   0  0  0  0  0  0  0  0  0  0  0  0
  1  2  1  0
  2  3  1  0
  4  1  1  6
  2  5  1  0
  2  6  1  0
  4  7  1  0
  4  8  1  0
  8  9  1  6
  3 10  1  0
  7 11  1  0
  8 12  1  0
 11 12  1  0
 11 13  1  1
 12 14  1  6
 10 15  1  0
 10 16  1  0
 10 17  1  0
M  CHG  2   5  -1  16  -1
M  END
>  <%Rank>  (288) 
21.908397

>  <N_hits>  (288) 
2

>  <submitter_name>  (288) 
nan

>  <original SMILES>  (288) 
nan

>  <∆G_unbound>  (288) 
3.155361

>  <∆G_bound>  (288) 
-8.940937

>  <regarded>  (288) 
mArh-5cb5_P_0_P_α,3Q6Z_0_A_β

>  <ref_pdb>  (288) 
nan

>  <smiles>  (288) 
[O-][PH](O)(O)O[PH]([O-])(O)CC1OC(O)C(O)C1O

>  <submitter_email>  (288) 
nan

>  <disregarded>  (288) 


>  <LE>  (288) 
-0.711547

>  <submitter_institution>  (288) 
nan

>  <ref_mols>  (288) 
mArh-5cb5_P_0_P,3Q6Z_0_A

>  <N_constrained_atoms>  (288) 
17.0

>  <ref_url>  (288) 
nan

>  <method>  (288) 
nan

>  <comRMSD>  (288) 
0.749783

>  <N_unconstrained_atoms>  (288) 
0.0

>  <∆∆G>  (288) 
-12.096298

>  <runtime>  (288) 
41.942395

>  <generation_date>  (288) 
nan

$$$$
mArh-5cb5_M_1_M_γ-mArh-5cms_R_17_R_β
     RDKit          3D

 16 16  0  0  0  0  0  0  0  0999 V2000
   -1.0130   12.4710   -3.9120 O   0  0  0  0  0  0  0  0  0  0  0  0
   -0.1550   13.5920   -3.8500 C   0  0  2  0  0  0  0  0  0  0  0  0
   -0.5600   14.6120   -2.7890 C   0  0  0  0  0  0  0  0  0  0  0  0
   -0.1430   14.3870   -5.1520 C   0  0  2  0  0  0  0  0  0  0  0  0
    1.2200   14.4030   -5.5880 O   0  0  0  0  0  0  0  0  0  0  0  0
   -0.2310   15.8870   -3.3430 O   0  0  0  0  0  0  0  0  0  0  0  0
   -0.6440   15.7650   -4.7060 C   0  0  1  0  0  0  0  0  0  0  0  0
   -0.1710   16.9900   -5.4590 C   0  0  0  0  0  0  0  0  0  0  0  0
   -1.5550   18.0140   -5.9640 P   0  0  1  0  0  0  0  0  0  0  0  0
   -1.0530   19.3660   -6.5630 O   0  0  0  0  0  0  0  0  0  0  0  0
   -2.6020   17.3260   -6.7740 O   0  0  0  0  0  0  0  0  0  0  0  0
   -2.0860   18.5320   -4.5740 O   0  0  0  0  0  0  0  0  0  0  0  0
   -0.2480   19.8010   -7.8100 P   0  0  0  0  0  0  0  0  0  0  0  0
   -1.3720   20.5740   -8.6120 O   0  0  0  0  0  0  0  0  0  0  0  0
    0.9900   20.5700   -7.5970 O   0  0  0  0  0  0  0  0  0  0  0  0
   -0.0970   18.5350   -8.7660 O   0  0  0  0  0  0  0  0  0  0  0  0
  2  1  1  6
  2  3  1  0
  2  4  1  0
  4  5  1  1
  3  6  1  0
  4  7  1  0
  6  7  1  0
  7  8  1  6
  8  9  1  0
  9 10  1  0
  9 11  2  0
  9 12  1  1
 10 13  1  0
 13 14  1  0
 13 15  2  0
 13 16  1  0
M  END
>  <%Rank>  (289) 
21.984733

>  <N_hits>  (289) 
2

>  <submitter_name>  (289) 
nan

>  <original SMILES>  (289) 
nan

>  <∆G_unbound>  (289) 
1.057928

>  <∆G_bound>  (289) 
-8.898796

>  <regarded>  (289) 
mArh-5cb5_M_1_M_γ,mArh-5cms_R_17_R_β

>  <ref_pdb>  (289) 
nan

>  <smiles>  (289) 
O=P(O)(O)OP(=O)(O)CC1OCC(O)C1O

>  <submitter_email>  (289) 
nan

>  <disregarded>  (289) 


>  <LE>  (289) 
-0.622295

>  <submitter_institution>  (289) 
nan

>  <ref_mols>  (289) 
mArh-5cb5_M_1_M,mArh-5cms_R_17_R

>  <N_constrained_atoms>  (289) 
16.0

>  <ref_url>  (289) 
nan

>  <method>  (289) 
nan

>  <comRMSD>  (289) 
0.68291

>  <N_unconstrained_atoms>  (289) 
0.0

>  <∆∆G>  (289) 
-9.956724

>  <runtime>  (289) 
36.813195

>  <generation_date>  (289) 
nan

$$$$
5CB5_0_K_β-mArh-x1018_0_A_α
     RDKit          3D

 22 23  0  0  0  0  0  0  0  0999 V2000
   -1.8150   20.6690   -8.6100 O   0  0  0  0  0  0  0  0  0  0  0  0
   -0.5560   20.2630   -7.6200 P   0  0  0  0  0  0  0  0  0  0  0  0
   -0.8600   19.4470   -6.2100 O   0  0  0  0  0  0  0  0  0  0  0  0
    0.8790   21.0060   -7.8570 O   0  0  0  0  0  0  0  0  0  0  0  0
   -0.1690   19.0300   -8.4460 O   0  0  0  0  0  0  0  0  0  0  0  0
   -1.3330   18.0100   -6.1110 P   0  0  0  0  0  0  0  0  0  0  0  0
    0.1010   17.4030   -6.5480 O   0  0  0  0  0  0  0  0  0  0  0  0
   -2.4980   18.3660   -7.2120 O   0  0  0  0  0  0  0  0  0  0  0  0
   -1.6170   18.0780   -4.5030 O   0  0  0  0  0  0  0  0  0  0  0  0
   -1.2110   16.8580   -4.0220 C   0  0  0  0  0  0  0  0  0  0  0  0
   -2.2470   15.7900   -4.2470 C   0  0  0  0  0  0  0  0  0  0  0  0
   -2.2680   14.7920   -3.1010 C   0  0  0  0  0  0  0  0  0  0  0  0
   -3.1880   15.2040   -2.0740 N   0  0  0  0  0  0  0  0  0  0  0  0
   -2.9270   14.7300   -0.8170 N   0  0  0  0  0  0  0  0  0  0  0  0
   -4.5010   14.9850   -2.3980 N   0  0  0  0  0  0  0  0  0  0  0  0
   -5.1770   14.9080   -1.1460 N   0  0  0  0  0  0  0  0  0  0  0  0
   -4.1380   15.1870   -0.1640 C   0  0  1  0  0  0  0  0  0  0  0  0
   -6.4750   14.8440   -0.7380 N   0  0  0  0  0  0  0  0  0  0  0  0
   -4.4870   14.6810    1.1210 C   0  0  0  0  0  0  0  0  0  0  0  0
   -6.8190   14.6150    0.4750 C   0  0  0  0  0  0  0  0  0  0  0  0
   -5.7350   14.4120    1.4350 C   0  0  0  0  0  0  0  0  0  0  0  0
   -8.5080   14.5450    0.9850 Cl  0  0  0  0  0  0  0  0  0  0  0  0
  1  2  1  0
  2  3  1  0
  2  4  1  0
  2  5  1  0
  3  6  1  0
  6  7  1  0
  6  8  1  0
  6  9  1  0
  9 10  1  0
 10 11  1  0
 11 12  1  0
 12 13  1  0
 13 14  1  0
 13 15  1  0
 15 16  1  0
 14 17  1  0
 16 17  1  0
 16 18  1  0
 17 19  1  1
 18 20  2  0
 19 21  2  0
 20 21  1  0
 20 22  1  0
M  CHG  2   4  -1   8  -1
M  END
>  <%Rank>  (290) 
22.061069

>  <N_hits>  (290) 
2

>  <submitter_name>  (290) 
nan

>  <original SMILES>  (290) 
nan

>  <∆G_unbound>  (290) 
0.381423

>  <∆G_bound>  (290) 
-8.099031

>  <regarded>  (290) 
5CB5_0_K_β,mArh-x1018_0_A_α

>  <ref_pdb>  (290) 
nan

>  <smiles>  (290) 
[O-][PH](O)(O)O[PH]([O-])(O)OCCCN1NC2C=CC(Cl)=NN2N1

>  <submitter_email>  (290) 
nan

>  <disregarded>  (290) 


>  <LE>  (290) 
-0.385475

>  <submitter_institution>  (290) 
nan

>  <ref_mols>  (290) 
5CB5_0_K,mArh-x1018_0_A

>  <N_constrained_atoms>  (290) 
19.0

>  <ref_url>  (290) 
nan

>  <method>  (290) 
nan

>  <comRMSD>  (290) 
0.549691

>  <N_unconstrained_atoms>  (290) 
3.0

>  <∆∆G>  (290) 
-8.480454

>  <runtime>  (290) 
49.76712

>  <generation_date>  (290) 
nan

$$$$
mArh-x0805_0_A_β-6MEA_0_B_β
     RDKit          3D

 19 19  0  0  0  0  0  0  0  0999 V2000
    0.3640   12.1380   -2.3790 C   0  0  0  0  0  0  0  0  0  0  0  0
    0.0710   10.8850   -2.8880 O   0  0  0  0  0  0  0  0  0  0  0  0
    0.2870   12.3510   -1.1570 O   0  0  0  0  0  0  0  0  0  0  0  0
    0.7700   13.2220   -3.2400 C   0  0  2  0  0  0  0  0  0  0  0  0
   -0.3300   14.0850   -3.7210 C   0  0  0  0  0  0  0  0  0  0  0  0
    1.7530   12.9060   -4.2970 C   0  0  0  0  0  0  0  0  0  0  0  0
    2.2450   14.0490   -4.8030 O   0  0  0  0  0  0  0  0  0  0  0  0
    0.3010   15.3800   -4.0160 C   0  0  2  0  0  0  0  0  0  0  0  0
   -0.2810   16.0990   -5.1360 C   0  0  0  0  0  0  0  0  0  0  0  0
    1.7820   15.2470   -4.3010 C   0  0  0  0  0  0  0  0  0  0  0  0
   -0.3020   17.4760   -5.0270 O   0  0  0  0  0  0  0  0  0  0  0  0
   -1.3070   18.0930   -6.0110 P   0  0  0  0  0  0  0  0  0  0  0  0
   -0.2560   19.1970   -6.5670 O   0  0  0  0  0  0  0  0  0  0  0  0
   -2.4220   18.4800   -6.9750 O   0  0  0  0  0  0  0  0  0  0  0  0
   -2.2140   18.5230   -4.7170 O   0  0  0  0  0  0  0  0  0  0  0  0
   -0.3100   19.9760   -7.8710 P   0  0  0  0  0  0  0  0  0  0  0  0
   -1.8020   20.5790   -7.7660 O   0  0  0  0  0  0  0  0  0  0  0  0
    1.0340   20.8600   -7.4760 O   0  0  0  0  0  0  0  0  0  0  0  0
   -0.0790   18.5630   -8.7220 O   0  0  0  0  0  0  0  0  0  0  0  0
  1  2  1  0
  1  3  2  0
  4  1  1  6
  4  5  1  0
  4  6  1  0
  6  7  1  0
  5  8  1  0
  8  9  1  6
  7 10  1  0
  8 10  1  0
  9 11  1  0
 11 12  1  0
 12 13  1  0
 12 14  1  0
 12 15  1  0
 13 16  1  0
 16 17  1  0
 16 18  1  0
 16 19  1  0
M  CHG  2  14  -1  18  -1
M  END
>  <%Rank>  (291) 
22.137405

>  <N_hits>  (291) 
2

>  <submitter_name>  (291) 
nan

>  <original SMILES>  (291) 
nan

>  <∆G_unbound>  (291) 
0.857455

>  <∆G_bound>  (291) 
-8.011568

>  <regarded>  (291) 
mArh-x0805_0_A_β,6MEA_0_B_β

>  <ref_pdb>  (291) 
nan

>  <smiles>  (291) 
O=C(O)C1COCC(CO[PH]([O-])(O)O[PH]([O-])(O)O)C1

>  <submitter_email>  (291) 
nan

>  <disregarded>  (291) 


>  <LE>  (291) 
-0.466791

>  <submitter_institution>  (291) 
nan

>  <ref_mols>  (291) 
mArh-x0805_0_A,6MEA_0_B

>  <N_constrained_atoms>  (291) 
18.0

>  <ref_url>  (291) 
nan

>  <method>  (291) 
nan

>  <comRMSD>  (291) 
0.621752

>  <N_unconstrained_atoms>  (291) 
1.0

>  <∆∆G>  (291) 
-8.869023

>  <runtime>  (291) 
37.393238

>  <generation_date>  (291) 
nan

$$$$
mArh-x0918_4_B_α-mArh-mac-058_0_A_α
     RDKit          3D

 23 25  0  0  0  0  0  0  0  0999 V2000
   14.0110   22.6190   14.3490 N   0  0  0  0  0  0  0  0  0  0  0  0
   13.1560   21.9330   13.3970 C   0  0  0  0  0  0  0  0  0  0  0  0
   14.0010   21.1830   12.4130 C   0  0  0  0  0  0  0  0  0  0  0  0
   12.1510   21.0450   14.0770 C   0  0  0  0  0  0  0  0  0  0  0  0
   12.0490   19.7340   13.7710 C   0  0  0  0  0  0  0  0  0  0  0  0
   13.8190   19.8670   12.1820 C   0  0  0  0  0  0  0  0  0  0  0  0
   12.8520   19.0930   12.8230 N   0  0  0  0  0  0  0  0  0  0  0  0
   12.6050   17.6830   12.4080 C   0  0  0  0  0  0  0  0  0  0  0  0
   12.7590   16.6370   13.5360 C   0  0  0  0  0  0  0  0  0  0  0  0
   13.9800   15.6920   13.4530 C   0  0  0  0  0  0  0  0  0  0  0  0
   13.9080   14.4540   14.3770 C   0  0  0  0  0  0  0  0  0  0  0  0
   13.4620   13.2150   13.6260 C   0  0  0  0  0  0  0  0  0  0  0  0
   14.3780   12.3200   12.9520 C   0  0  0  0  0  0  0  0  0  0  0  0
   12.1880   12.9040   13.5530 C   0  0  0  0  0  0  0  0  0  0  0  0
   15.7560   12.4010   13.0980 C   0  0  0  0  0  0  0  0  0  0  0  0
   13.8580   11.3240   12.1230 C   0  0  0  0  0  0  0  0  0  0  0  0
   11.6240   11.7570   12.7940 C   0  0  0  0  0  0  0  0  0  0  0  0
   10.4760   11.3620   12.8720 O   0  0  0  0  0  0  0  0  0  0  0  0
   16.5960   11.5090   12.4400 C   0  0  0  0  0  0  0  0  0  0  0  0
   14.6660   10.4240   11.4550 C   0  0  0  0  0  0  0  0  0  0  0  0
   12.4870   11.1740   11.9210 O   0  0  0  0  0  0  0  0  0  0  0  0
   17.9820   11.6150   12.6110 N   0  0  0  0  0  0  0  0  0  0  0  0
   16.0470   10.5220   11.6200 C   0  0  0  0  0  0  0  0  0  0  0  0
  1  2  1  0
  2  3  1  0
  2  4  1  0
  4  5  2  0
  3  6  2  0
  5  7  1  0
  6  7  1  0
  7  8  1  0
  8  9  1  0
  9 10  1  0
 10 11  1  0
 11 12  1  0
 12 13  1  0
 12 14  2  0
 13 15  2  0
 13 16  1  0
 14 17  1  0
 17 18  2  0
 15 19  1  0
 16 20  2  0
 16 21  1  0
 17 21  1  0
 19 22  1  0
 19 23  2  0
 20 23  1  0
M  END
>  <%Rank>  (292) 
22.21374

>  <N_hits>  (292) 
2

>  <submitter_name>  (292) 
nan

>  <original SMILES>  (292) 
nan

>  <∆G_unbound>  (292) 
0.144186

>  <∆G_bound>  (292) 
-6.981905

>  <regarded>  (292) 
mArh-x0918_4_B_α,mArh-mac-058_0_A_α

>  <ref_pdb>  (292) 
nan

>  <smiles>  (292) 
Nc1ccc2oc(=O)cc(CCCCN3C=CC(N)C=C3)c2c1

>  <submitter_email>  (292) 
nan

>  <disregarded>  (292) 


>  <LE>  (292) 
-0.30983

>  <submitter_institution>  (292) 
nan

>  <ref_mols>  (292) 
mArh-x0918_4_B,mArh-mac-058_0_A

>  <N_constrained_atoms>  (292) 
19.0

>  <ref_url>  (292) 
nan

>  <method>  (292) 
nan

>  <comRMSD>  (292) 
0.486621

>  <N_unconstrained_atoms>  (292) 
4.0

>  <∆∆G>  (292) 
-7.12609

>  <runtime>  (292) 
38.417402

>  <generation_date>  (292) 
nan

$$$$
5CB5_0_O_δ-mArh-5cms_L_11_L_β
     RDKit          3D

 21 22  0  0  0  0  0  0  0  0999 V2000
   -4.0320   15.5430    1.6080 N   0  0  0  0  0  0  0  0  0  0  0  0
   -2.7770   15.4190    0.8850 C   0  0  2  0  0  0  0  0  0  0  0  0
   -2.9360   14.6000   -0.3960 C   0  0  2  0  0  0  0  0  0  0  0  0
   -1.8070   14.8030    1.7650 N   0  0  0  0  0  0  0  0  0  0  0  0
   -1.5330   14.2710   -0.8720 C   0  0  1  0  0  0  0  0  0  0  0  0
   -3.5250   15.3470   -1.5340 N   0  0  0  0  0  0  0  0  0  0  0  0
   -0.4900   14.5820    1.1590 C   0  0  0  0  0  0  0  0  0  0  0  0
   -1.4920   14.4800   -2.2940 N   0  0  0  0  0  0  0  0  0  0  0  0
   -2.8410   14.7870   -2.7040 C   0  0  2  0  0  0  0  0  0  0  0  0
   -0.5100   15.0160   -0.2070 N   0  0  0  0  0  0  0  0  0  0  0  0
   -2.8280   15.7000   -3.9190 C   0  0  0  0  0  0  0  0  0  0  0  0
   -1.6130   16.6290   -3.9110 C   0  0  0  0  0  0  0  0  0  0  0  0
   -1.9570   17.9050   -4.4530 O   0  0  0  0  0  0  0  0  0  0  0  0
   -1.7450   18.0190   -6.0160 P   0  0  1  0  0  0  0  0  0  0  0  0
   -1.1790   19.4040   -6.4720 O   0  0  0  0  0  0  0  0  0  0  0  0
   -0.4200   17.1370   -6.0790 O   0  0  0  0  0  0  0  0  0  0  0  0
   -2.7890   17.4170   -6.8520 O   0  0  0  0  0  0  0  0  0  0  0  0
   -0.3120   19.7050   -7.7520 P   0  0  0  0  0  0  0  0  0  0  0  0
   -1.2590   20.5600   -8.6980 O   0  0  0  0  0  0  0  0  0  0  0  0
    0.9750   20.4000   -7.5060 O   0  0  0  0  0  0  0  0  0  0  0  0
   -0.1390   18.3910   -8.6350 O   0  0  0  0  0  0  0  0  0  0  0  0
  2  1  1  1
  2  3  1  0
  2  4  1  0
  3  5  1  0
  3  6  1  6
  4  7  1  0
  5  8  1  6
  6  9  1  0
  8  9  1  0
  5 10  1  0
  7 10  1  0
  9 11  1  6
 11 12  1  0
 12 13  1  0
 13 14  1  0
 14 15  1  0
 14 16  1  1
 14 17  2  0
 15 18  1  0
 18 19  1  0
 18 20  2  0
 18 21  1  0
M  END
>  <%Rank>  (293) 
22.290076

>  <N_hits>  (293) 
2

>  <submitter_name>  (293) 
nan

>  <original SMILES>  (293) 
nan

>  <∆G_unbound>  (293) 
1.894859

>  <∆G_bound>  (293) 
-8.848496

>  <regarded>  (293) 
5CB5_0_O_δ,mArh-5cms_L_11_L_β

>  <ref_pdb>  (293) 
nan

>  <smiles>  (293) 
NC1NCNC2NC(CCOP(=O)(O)OP(=O)(O)O)NC12

>  <submitter_email>  (293) 
nan

>  <disregarded>  (293) 


>  <LE>  (293) 
-0.511588

>  <submitter_institution>  (293) 
nan

>  <ref_mols>  (293) 
5CB5_0_O,mArh-5cms_L_11_L

>  <N_constrained_atoms>  (293) 
19.0

>  <ref_url>  (293) 
nan

>  <method>  (293) 
nan

>  <comRMSD>  (293) 
0.640475

>  <N_unconstrained_atoms>  (293) 
2.0

>  <∆∆G>  (293) 
-10.743354

>  <runtime>  (293) 
27.60107

>  <generation_date>  (293) 
nan

$$$$
5CB5_0_D_γ-5CB5_0_F_β
     RDKit          3D

 16 16  0  0  0  0  0  0  0  0999 V2000
    0.4140   12.7550   -4.1240 O   0  0  0  0  0  0  0  0  0  0  0  0
   -0.3390   13.9150   -3.9990 C   0  0  1  0  0  0  0  0  0  0  0  0
    0.1450   14.8260   -2.8790 C   0  0  0  0  0  0  0  0  0  0  0  0
   -0.2080   14.7590   -5.2180 C   0  0  2  0  0  0  0  0  0  0  0  0
    1.0570   14.4880   -5.7420 O   0  0  0  0  0  0  0  0  0  0  0  0
    0.5090   16.0310   -3.5120 O   0  0  0  0  0  0  0  0  0  0  0  0
   -0.3240   16.1010   -4.6040 C   0  0  1  0  0  0  0  0  0  0  0  0
   -0.1070   17.3550   -5.4650 C   0  0  0  0  0  0  0  0  0  0  0  0
   -1.6290   18.1790   -5.6990 P   0  0  0  0  0  0  0  0  0  0  0  0
   -1.3390   19.3270   -6.6700 O   0  0  0  0  0  0  0  0  0  0  0  0
   -2.7240   17.6120   -6.8580 O   0  0  0  0  0  0  0  0  0  0  0  0
   -2.1550   19.2870   -4.6820 O   0  0  0  0  0  0  0  0  0  0  0  0
   -0.1680   19.5470   -7.7090 P   0  0  0  0  0  0  0  0  0  0  0  0
   -1.1690   20.0220   -8.7430 O   0  0  0  0  0  0  0  0  0  0  0  0
    0.2430   18.4250   -8.8560 O   0  0  0  0  0  0  0  0  0  0  0  0
    0.6680   20.9750   -7.6900 O   0  0  0  0  0  0  0  0  0  0  0  0
  2  1  1  6
  2  3  1  0
  2  4  1  0
  4  5  1  1
  3  6  1  0
  4  7  1  0
  6  7  1  0
  7  8  1  6
  8  9  1  0
  9 10  1  0
  9 11  1  0
  9 12  1  0
 10 13  1  0
 13 14  1  0
 13 15  1  0
 13 16  1  0
M  CHG  2  11  -1  15  -1
M  END
>  <%Rank>  (294) 
22.366412

>  <N_hits>  (294) 
2

>  <submitter_name>  (294) 
nan

>  <original SMILES>  (294) 
nan

>  <∆G_unbound>  (294) 
0.683631

>  <∆G_bound>  (294) 
-7.524931

>  <regarded>  (294) 
5CB5_0_D_γ,5CB5_0_F_β

>  <ref_pdb>  (294) 
nan

>  <smiles>  (294) 
[O-][PH](O)(O)O[PH]([O-])(O)CC1OCC(O)C1O

>  <submitter_email>  (294) 
nan

>  <disregarded>  (294) 


>  <LE>  (294) 
-0.513035

>  <submitter_institution>  (294) 
nan

>  <ref_mols>  (294) 
5CB5_0_D,5CB5_0_F

>  <N_constrained_atoms>  (294) 
16.0

>  <ref_url>  (294) 
nan

>  <method>  (294) 
nan

>  <comRMSD>  (294) 
0.630185

>  <N_unconstrained_atoms>  (294) 
0.0

>  <∆∆G>  (294) 
-8.208562

>  <runtime>  (294) 
29.337701

>  <generation_date>  (294) 
nan

$$$$
mArh-mac-242_0_A_α-5CB5_0_I_γ
     RDKit          3D

 18 20  0  0  0  0  0  0  0  0999 V2000
   -3.7380   15.0780    1.7190 N   0  0  0  0  0  0  0  0  0  0  0  0
   -2.7260   14.2670    1.0800 C   0  0  2  0  0  0  0  0  0  0  0  0
   -1.4310   14.3180    1.7050 N   0  0  0  0  0  0  0  0  0  0  0  0
   -2.5820   14.6780   -0.4040 C   0  0  1  0  0  0  0  0  0  0  0  0
   -1.1230   14.6080   -1.0080 C   0  0  1  0  0  0  0  0  0  0  0  0
   -0.3780   13.6880    1.1270 C   0  0  0  0  0  0  0  0  0  0  0  0
   -3.6290   14.0130   -1.2900 C   0  0  0  0  0  0  0  0  0  0  0  0
   -0.1680   13.7600   -0.1880 C   0  0  0  0  0  0  0  0  0  0  0  0
   -1.0690   14.6800   -2.6170 C   0  0  1  0  0  0  0  0  0  0  0  0
   -3.5940   14.6530   -2.6290 C   0  0  0  0  0  0  0  0  0  0  0  0
   -2.4360   14.9560   -3.2220 C   0  0  0  0  0  0  0  0  0  0  0  0
   -0.2060   15.8090   -2.9380 O   0  0  0  0  0  0  0  0  0  0  0  0
   -0.3680   13.5590   -3.4510 C   0  0  1  0  0  0  0  0  0  0  0  0
   -1.2280   12.4680   -3.8250 O   0  0  0  0  0  0  0  0  0  0  0  0
    0.4250   15.6610   -4.2250 C   0  0  1  0  0  0  0  0  0  0  0  0
   -0.0050   14.2910   -4.7610 C   0  0  1  0  0  0  0  0  0  0  0  0
    0.1100   16.8830   -5.0800 C   0  0  0  0  0  0  0  0  0  0  0  0
    1.0260   13.5900   -5.4540 O   0  0  0  0  0  0  0  0  0  0  0  0
  2  1  1  1
  2  3  1  0
  2  4  1  0
  4  5  1  0
  3  6  1  0
  4  7  1  6
  5  8  1  6
  6  8  2  0
  5  9  1  0
  7 10  1  0
  9 11  1  6
 10 11  2  0
  9 12  1  0
  9 13  1  0
 13 14  1  6
 12 15  1  0
 13 16  1  0
 15 16  1  0
 15 17  1  6
 16 18  1  1
M  END
>  <%Rank>  (295) 
22.442748

>  <N_hits>  (295) 
2

>  <submitter_name>  (295) 
nan

>  <original SMILES>  (295) 
nan

>  <∆G_unbound>  (295) 
0.473429

>  <∆G_bound>  (295) 
-5.045804

>  <regarded>  (295) 
mArh-mac-242_0_A_α,5CB5_0_I_γ

>  <ref_pdb>  (295) 
nan

>  <smiles>  (295) 
CC1OC2(C=CCC3C(N)NC=CC32)C(O)C1O

>  <submitter_email>  (295) 
nan

>  <disregarded>  (295) 


>  <LE>  (295) 
-0.306624

>  <submitter_institution>  (295) 
nan

>  <ref_mols>  (295) 
mArh-mac-242_0_A,5CB5_0_I

>  <N_constrained_atoms>  (295) 
18.0

>  <ref_url>  (295) 
nan

>  <method>  (295) 
nan

>  <comRMSD>  (295) 
0.571009

>  <N_unconstrained_atoms>  (295) 
0.0

>  <∆∆G>  (295) 
-5.519233

>  <runtime>  (295) 
30.304385

>  <generation_date>  (295) 
nan

$$$$
mArh-5cms_K_10_K_α-1VHU_0_A_α
     RDKit          3D

 20 21  0  0  0  0  0  0  0  0999 V2000
   -1.2100   21.8750   -8.4610 C   0  0  1  0  0  0  0  0  0  0  0  0
   -2.0800   22.2790   -7.3020 C   0  0  0  0  0  0  0  0  0  0  0  0
   -3.5310   22.4170   -7.5410 N   0  0  0  0  0  0  0  0  0  0  0  0
   -0.2890   20.3910   -7.9130 S   0  0  0  0  0  0  0  0  0  0  0  0
   -1.9070   22.2760   -9.7850 C   0  0  2  0  0  0  0  0  0  0  0  0
   -0.2710   19.1110   -8.8550 O   0  0  0  0  0  0  0  0  0  0  0  0
   -0.9140   19.9160   -6.5150 O   0  0  0  0  0  0  0  0  0  0  0  0
    1.1850   20.9740   -7.6170 O   0  0  0  0  0  0  0  0  0  0  0  0
   -2.2270   21.3740  -10.8480 O   0  0  0  0  0  0  0  0  0  0  0  0
   -1.4680   23.5610  -10.4770 C   0  0  1  0  0  0  0  0  0  0  0  0
   -0.1910   23.6340  -11.0690 O   0  0  0  0  0  0  0  0  0  0  0  0
   -2.9950   22.2190  -11.7590 C   0  0  2  0  0  0  0  0  0  0  0  0
   -2.5070   23.6710  -11.5620 C   0  0  1  0  0  0  0  0  0  0  0  0
   -3.8450   22.7310   -8.9600 C   0  0  0  0  0  0  0  0  0  0  0  0
   -3.8810   23.6230   -6.7680 C   0  0  0  0  0  0  0  0  0  0  0  0
   -4.4000   22.1780  -11.5340 O   0  0  0  0  0  0  0  0  0  0  0  0
   -3.5430   24.6040  -11.2910 O   0  0  0  0  0  0  0  0  0  0  0  0
   -5.3060   23.1460   -9.1550 C   0  0  0  0  0  0  0  0  0  0  0  0
   -5.3380   23.9440   -6.9710 C   0  0  0  0  0  0  0  0  0  0  0  0
   -5.6130   24.2640   -8.3300 O   0  0  0  0  0  0  0  0  0  0  0  0
  1  2  1  1
  2  3  1  0
  1  4  1  0
  1  5  1  0
  4  6  1  0
  4  7  1  0
  4  8  1  0
  5  9  1  6
  5 10  1  0
 10 11  1  6
  9 12  1  0
 10 13  1  0
 12 13  1  0
  3 14  1  0
  3 15  1  0
 12 16  1  1
 13 17  1  1
 14 18  1  0
 15 19  1  0
 18 20  1  0
 19 20  1  0
M  END
>  <%Rank>  (296) 
22.519084

>  <N_hits>  (296) 
2

>  <submitter_name>  (296) 
nan

>  <original SMILES>  (296) 
nan

>  <∆G_unbound>  (296) 
1.681194

>  <∆G_bound>  (296) 
-3.057761

>  <regarded>  (296) 
mArh-5cms_K_10_K_α,1VHU_0_A_α

>  <ref_pdb>  (296) 
nan

>  <smiles>  (296) 
OC1OC(C(CN2CCOCC2)S(O)(O)O)C(O)C1O

>  <submitter_email>  (296) 
nan

>  <disregarded>  (296) 


>  <LE>  (296) 
-0.236948

>  <submitter_institution>  (296) 
nan

>  <ref_mols>  (296) 
mArh-5cms_K_10_K,1VHU_0_A

>  <N_constrained_atoms>  (296) 
20.0

>  <ref_url>  (296) 
nan

>  <method>  (296) 
nan

>  <comRMSD>  (296) 
0.576668

>  <N_unconstrained_atoms>  (296) 
0.0

>  <∆∆G>  (296) 
-4.738955

>  <runtime>  (296) 
29.276135

>  <generation_date>  (296) 
nan

$$$$
4IQY_0_B_γ-mArh-x0104_0_A_β
     RDKit          3D

 18 19  0  0  0  0  0  0  0  0999 V2000
   -1.0300   12.2850   -4.0160 O   0  0  0  0  0  0  0  0  0  0  0  0
   -0.4390   13.5260   -3.6600 C   0  0  2  0  0  0  0  0  0  0  0  0
   -1.4410   14.6330   -3.4190 C   0  0  1  0  0  0  0  0  0  0  0  0
    0.3550   14.1400   -4.8260 C   0  0  2  0  0  0  0  0  0  0  0  0
    1.7480   14.0280   -4.5230 O   0  0  0  0  0  0  0  0  0  0  0  0
   -2.2620   14.5590   -2.1510 C   0  0  0  0  0  0  0  0  0  0  0  0
   -0.6340   15.7920   -3.4890 O   0  0  0  0  0  0  0  0  0  0  0  0
   -0.1140   15.6110   -4.8060 C   0  0  1  0  0  0  0  0  0  0  0  0
    0.9210   16.6760   -5.0740 C   0  0  0  0  0  0  0  0  0  0  0  0
   -3.5350   15.3700   -2.3800 C   0  0  0  0  0  0  0  0  0  0  0  0
   -4.6990   14.5690   -2.2740 O   0  0  0  0  0  0  0  0  0  0  0  0
   -5.2220   14.6250   -1.0100 C   0  0  0  0  0  0  0  0  0  0  0  0
   -4.3900   14.7070    0.0440 N   0  0  0  0  0  0  0  0  0  0  0  0
   -6.6020   14.5910   -0.9180 C   0  0  0  0  0  0  0  0  0  0  0  0
   -4.9770   14.7550    1.2580 C   0  0  0  0  0  0  0  0  0  0  0  0
   -7.1710   14.6410    0.3480 C   0  0  0  0  0  0  0  0  0  0  0  0
   -6.3560   14.7250    1.4710 C   0  0  0  0  0  0  0  0  0  0  0  0
   -6.9180   14.7860    2.7440 N   0  0  0  0  0  0  0  0  0  0  0  0
  2  1  1  6
  2  3  1  0
  2  4  1  0
  4  5  1  1
  3  6  1  1
  3  7  1  0
  4  8  1  0
  7  8  1  0
  8  9  1  1
  6 10  1  0
 10 11  1  0
 11 12  1  0
 12 13  2  0
 12 14  1  0
 13 15  1  0
 14 16  2  0
 15 17  2  0
 16 17  1  0
 17 18  1  0
M  END
>  <%Rank>  (297) 
22.59542

>  <N_hits>  (297) 
2

>  <submitter_name>  (297) 
nan

>  <original SMILES>  (297) 
nan

>  <∆G_unbound>  (297) 
0.22395

>  <∆G_bound>  (297) 
-5.474446

>  <regarded>  (297) 
4IQY_0_B_γ,mArh-x0104_0_A_β

>  <ref_pdb>  (297) 
nan

>  <smiles>  (297) 
CC1OC(CCOc2ccc(N)cn2)C(O)C1O

>  <submitter_email>  (297) 
nan

>  <disregarded>  (297) 


>  <LE>  (297) 
-0.316578

>  <submitter_institution>  (297) 
nan

>  <ref_mols>  (297) 
4IQY_0_B,mArh-x0104_0_A

>  <N_constrained_atoms>  (297) 
17.0

>  <ref_url>  (297) 
nan

>  <method>  (297) 
nan

>  <comRMSD>  (297) 
0.526456

>  <N_unconstrained_atoms>  (297) 
1.0

>  <∆∆G>  (297) 
-5.698396

>  <runtime>  (297) 
38.893477

>  <generation_date>  (297) 
nan

$$$$
mArh-5cb5_N_0_N_γ-5CB5_0_Q_β
     RDKit          3D

 16 16  0  0  0  0  0  0  0  0999 V2000
   -1.1640   12.9900   -4.0330 O   0  0  0  0  0  0  0  0  0  0  0  0
   -0.2670   14.0480   -3.9070 C   0  0  2  0  0  0  0  0  0  0  0  0
   -0.7800   15.1540   -3.0480 C   0  0  0  0  0  0  0  0  0  0  0  0
   -0.0460   14.7770   -5.1890 C   0  0  2  0  0  0  0  0  0  0  0  0
    0.9460   14.0490   -5.8420 O   0  0  0  0  0  0  0  0  0  0  0  0
    0.0150   16.2600   -3.4180 O   0  0  0  0  0  0  0  0  0  0  0  0
    0.4570   16.1150   -4.7370 C   0  0  2  0  0  0  0  0  0  0  0  0
    0.1020   17.3800   -5.5850 C   0  0  0  0  0  0  0  0  0  0  0  0
   -1.5430   18.0110   -5.6570 P   0  0  0  0  0  0  0  0  0  0  0  0
   -1.4250   19.2320   -6.5930 O   0  0  0  0  0  0  0  0  0  0  0  0
   -2.6740   17.4440   -6.7960 O   0  0  0  0  0  0  0  0  0  0  0  0
   -2.0720   19.0460   -4.5680 O   0  0  0  0  0  0  0  0  0  0  0  0
   -0.3110   19.6240   -7.6650 P   0  0  0  0  0  0  0  0  0  0  0  0
   -1.3630   20.3620   -8.4950 O   0  0  0  0  0  0  0  0  0  0  0  0
    0.5360   21.0730   -7.6200 O   0  0  0  0  0  0  0  0  0  0  0  0
    0.0740   18.5580   -8.8500 O   0  0  0  0  0  0  0  0  0  0  0  0
  2  1  1  6
  2  3  1  0
  2  4  1  0
  4  5  1  6
  3  6  1  0
  4  7  1  0
  6  7  1  0
  7  8  1  6
  8  9  1  0
  9 10  1  0
  9 11  1  0
  9 12  1  0
 10 13  1  0
 13 14  1  0
 13 15  1  0
 13 16  1  0
M  CHG  2  11  -1  15  -1
M  END
>  <%Rank>  (298) 
22.671756

>  <N_hits>  (298) 
2

>  <submitter_name>  (298) 
nan

>  <original SMILES>  (298) 
nan

>  <∆G_unbound>  (298) 
0.683631

>  <∆G_bound>  (298) 
-7.888745

>  <regarded>  (298) 
mArh-5cb5_N_0_N_γ,5CB5_0_Q_β

>  <ref_pdb>  (298) 
nan

>  <smiles>  (298) 
[O-][PH](O)(O)O[PH]([O-])(O)CC1OCC(O)C1O

>  <submitter_email>  (298) 
nan

>  <disregarded>  (298) 


>  <LE>  (298) 
-0.535774

>  <submitter_institution>  (298) 
nan

>  <ref_mols>  (298) 
mArh-5cb5_N_0_N,5CB5_0_Q

>  <N_constrained_atoms>  (298) 
16.0

>  <ref_url>  (298) 
nan

>  <method>  (298) 
nan

>  <comRMSD>  (298) 
0.643975

>  <N_unconstrained_atoms>  (298) 
0.0

>  <∆∆G>  (298) 
-8.572376

>  <runtime>  (298) 
35.228182

>  <generation_date>  (298) 
nan

$$$$
mArh-3q6z_0_A_β-mArh-6woj_B_0_B_α
     RDKit          3D

 17 17  0  0  0  0  0  0  0  0999 V2000
   -1.7690   21.4860   -8.1370 O   0  0  0  0  0  0  0  0  0  0  0  0
   -0.8380   20.1910   -7.7550 P   0  0  1  0  0  0  0  0  0  0  0  0
   -1.1560   19.7290   -6.2770 O   0  0  0  0  0  0  0  0  0  0  0  0
   -3.2120   21.5870   -8.1180 C   0  0  1  0  0  0  0  0  0  0  0  0
   -0.6670   19.0010   -8.6530 O   0  0  0  0  0  0  0  0  0  0  0  0
    0.6090   20.8780   -7.6270 O   0  0  0  0  0  0  0  0  0  0  0  0
   -3.7640   20.9270   -6.9760 O   0  0  0  0  0  0  0  0  0  0  0  0
   -3.9040   22.9950   -8.0730 C   0  0  2  0  0  0  0  0  0  0  0  0
   -1.5300   18.2220   -5.9130 P   0  0  0  0  0  0  0  0  0  0  0  0
   -3.1900   24.1330   -8.4500 O   0  0  0  0  0  0  0  0  0  0  0  0
   -4.9080   21.7040   -6.6190 C   0  0  2  0  0  0  0  0  0  0  0  0
   -4.3580   23.0960   -6.6320 C   0  0  2  0  0  0  0  0  0  0  0  0
   -0.2420   17.3540   -6.2430 O   0  0  0  0  0  0  0  0  0  0  0  0
   -2.0210   17.9600   -4.5590 O   0  0  0  0  0  0  0  0  0  0  0  0
   -2.5880   17.7400   -7.0050 O   0  0  0  0  0  0  0  0  0  0  0  0
   -5.3860   21.3390   -5.3500 O   0  0  0  0  0  0  0  0  0  0  0  0
   -5.3760   24.0960   -6.4440 O   0  0  0  0  0  0  0  0  0  0  0  0
  1  2  1  0
  2  3  1  0
  4  1  1  1
  2  5  2  0
  2  6  1  1
  4  7  1  0
  4  8  1  0
  3  9  1  0
  8 10  1  1
  7 11  1  0
  8 12  1  0
 11 12  1  0
  9 13  1  0
  9 14  2  0
  9 15  1  0
 11 16  1  1
 12 17  1  6
M  END
>  <%Rank>  (299) 
22.748092

>  <N_hits>  (299) 
2

>  <submitter_name>  (299) 
nan

>  <original SMILES>  (299) 
nan

>  <∆G_unbound>  (299) 
1.622845

>  <∆G_bound>  (299) 
-9.763805

>  <regarded>  (299) 
mArh-3q6z_0_A_β,mArh-6woj_B_0_B_α

>  <ref_pdb>  (299) 
nan

>  <smiles>  (299) 
O=P(O)(O)OP(=O)(O)OC1OC(O)C(O)C1O

>  <submitter_email>  (299) 
nan

>  <disregarded>  (299) 


>  <LE>  (299) 
-0.669803

>  <submitter_institution>  (299) 
nan

>  <ref_mols>  (299) 
mArh-3q6z_0_A,mArh-6woj_B_0_B

>  <N_constrained_atoms>  (299) 
17.0

>  <ref_url>  (299) 
nan

>  <method>  (299) 
nan

>  <comRMSD>  (299) 
0.733851

>  <N_unconstrained_atoms>  (299) 
0.0

>  <∆∆G>  (299) 
-11.38665

>  <runtime>  (299) 
35.473864

>  <generation_date>  (299) 
nan

$$$$
mArh-x0837_0_A_α-mArh-EU0172_0_A_α
     RDKit          3D

 11 11  0  0  0  0  0  0  0  0999 V2000
   -7.5300   15.0220   -0.2720 O   0  0  0  0  0  0  0  0  0  0  0  0
   -6.3200   14.8840   -0.1320 C   0  0  0  0  0  0  0  0  0  0  0  0
   -5.6890   14.7480    1.0850 N   0  0  0  0  0  0  0  0  0  0  0  0
   -5.4370   14.8220   -1.3140 C   0  0  0  0  0  0  0  0  0  0  0  0
   -6.3680   13.9080    2.0590 C   0  0  0  0  0  0  0  0  0  0  0  0
   -4.3340   14.9840    1.2300 C   0  0  0  0  0  0  0  0  0  0  0  0
   -4.1140   14.8960   -1.1640 C   0  0  0  0  0  0  0  0  0  0  0  0
   -2.9100   14.7600   -2.8360 I   0  0  0  0  0  0  0  0  0  0  0  0
   -7.2830   14.7510    2.9600 C   0  0  0  0  0  0  0  0  0  0  0  0
   -3.5420   15.0590    0.1610 C   0  0  0  0  0  0  0  0  0  0  0  0
   -7.9420   13.9660    3.9900 N   0  0  0  0  0  0  0  0  0  0  0  0
  1  2  2  0
  2  3  1  0
  2  4  1  0
  3  5  1  0
  3  6  1  0
  4  7  2  0
  7  8  1  0
  5  9  1  0
  6 10  2  0
  7 10  1  0
  9 11  1  0
M  END
>  <%Rank>  (300) 
22.824427

>  <N_hits>  (300) 
2

>  <submitter_name>  (300) 
nan

>  <original SMILES>  (300) 
nan

>  <∆G_unbound>  (300) 
0.783737

>  <∆G_bound>  (300) 
-3.560067

>  <regarded>  (300) 
mArh-x0837_0_A_α,mArh-EU0172_0_A_α

>  <ref_pdb>  (300) 
nan

>  <smiles>  (300) 
NCCn1ccc(I)cc1=O

>  <submitter_email>  (300) 
nan

>  <disregarded>  (300) 


>  <LE>  (300) 
-0.394891

>  <submitter_institution>  (300) 
nan

>  <ref_mols>  (300) 
mArh-x0837_0_A,mArh-EU0172_0_A

>  <N_constrained_atoms>  (300) 
11.0

>  <ref_url>  (300) 
nan

>  <method>  (300) 
nan

>  <comRMSD>  (300) 
0.43994

>  <N_unconstrained_atoms>  (300) 
0.0

>  <∆∆G>  (300) 
-4.343804

>  <runtime>  (300) 
20.843721

>  <generation_date>  (300) 
nan

$$$$
5DUS_0_A_γ-mArh-EU0569_0_A_α
     RDKit          3D

 23 25  0  0  0  0  0  0  0  0999 V2000
   -1.2930   12.5010   -4.2210 O   0  0  0  0  0  0  0  0  0  0  0  0
   -1.2740   13.8470   -4.7130 C   0  0  1  0  0  0  0  0  0  0  0  0
   -1.3980   14.8710   -3.5820 C   0  0  1  0  0  0  0  0  0  0  0  0
    0.1090   14.1750   -5.2450 C   0  0  2  0  0  0  0  0  0  0  0  0
    1.1100   13.3490   -4.6770 O   0  0  0  0  0  0  0  0  0  0  0  0
   -1.9380   14.3560   -2.3030 C   0  0  0  0  0  0  0  0  0  0  0  0
   -0.1260   15.4650   -3.3970 O   0  0  0  0  0  0  0  0  0  0  0  0
    0.1240   15.6180   -4.7760 C   0  0  1  0  0  0  0  0  0  0  0  0
    1.3470   16.3930   -4.9880 C   0  0  0  0  0  0  0  0  0  0  0  0
   -3.4220   14.4680   -2.4520 C   0  0  0  0  0  0  0  0  0  0  0  0
   -4.1230   14.6100   -1.1870 C   0  0  0  0  0  0  0  0  0  0  0  0
   -3.4340   14.6040    0.0290 C   0  0  0  0  0  0  0  0  0  0  0  0
   -5.4890   14.7410   -1.2410 C   0  0  0  0  0  0  0  0  0  0  0  0
   -6.1970   14.8590   -0.0840 C   0  0  0  0  0  0  0  0  0  0  0  0
   -4.1500   14.7260    1.2070 C   0  0  0  0  0  0  0  0  0  0  0  0
   -7.5410   14.9750   -0.2310 O   0  0  0  0  0  0  0  0  0  0  0  0
   -5.5390   14.8520    1.1400 C   0  0  0  0  0  0  0  0  0  0  0  0
   -8.3170   14.6240    0.9120 C   0  0  0  0  0  0  0  0  0  0  0  0
   -6.3330   14.9870    2.3340 C   0  0  0  0  0  0  0  0  0  0  0  0
   -7.6610   14.8840    2.2200 C   0  0  0  0  0  0  0  0  0  0  0  0
   -8.4440   15.0710    3.4540 C   0  0  0  0  0  0  0  0  0  0  0  0
   -7.7700   14.8910    4.6130 N   0  0  0  0  0  0  0  0  0  0  0  0
   -9.6310   15.3790    3.4500 O   0  0  0  0  0  0  0  0  0  0  0  0
  2  1  1  1
  2  3  1  0
  2  4  1  0
  4  5  1  1
  3  6  1  1
  3  7  1  0
  4  8  1  0
  7  8  1  0
  8  9  1  1
  6 10  1  0
 10 11  1  0
 11 12  2  0
 11 13  1  0
 13 14  2  0
 12 15  1  0
 14 16  1  0
 14 17  1  0
 15 17  2  0
 16 18  1  0
 17 19  1  0
 18 20  1  0
 19 20  2  0
 20 21  1  0
 21 22  1  0
 21 23  2  0
M  END
>  <%Rank>  (301) 
22.900763

>  <N_hits>  (301) 
2

>  <submitter_name>  (301) 
nan

>  <original SMILES>  (301) 
nan

>  <∆G_unbound>  (301) 
0.151575

>  <∆G_bound>  (301) 
-6.354258

>  <regarded>  (301) 
5DUS_0_A_γ,mArh-EU0569_0_A_α

>  <ref_pdb>  (301) 
nan

>  <smiles>  (301) 
CC1OC(CCc2ccc3c(c2)OCC(C(N)=O)=C3)C(O)C1O

>  <submitter_email>  (301) 
nan

>  <disregarded>  (301) 


>  <LE>  (301) 
-0.282862

>  <submitter_institution>  (301) 
nan

>  <ref_mols>  (301) 
5DUS_0_A,mArh-EU0569_0_A

>  <N_constrained_atoms>  (301) 
21.0

>  <ref_url>  (301) 
nan

>  <method>  (301) 
nan

>  <comRMSD>  (301) 
0.572796

>  <N_unconstrained_atoms>  (301) 
2.0

>  <∆∆G>  (301) 
-6.505833

>  <runtime>  (301) 
55.327614

>  <generation_date>  (301) 
nan

$$$$
mArh-5dus_0_A_β-5CB5_0_Q_α
     RDKit          3D

 17 17  0  0  0  0  0  0  0  0999 V2000
   -2.3200   20.9430   -7.5410 O   0  0  0  0  0  0  0  0  0  0  0  0
   -0.8350   20.2400   -7.6950 P   0  0  2  0  0  0  0  0  0  0  0  0
   -0.5550   19.3660   -6.3940 O   0  0  0  0  0  0  0  0  0  0  0  0
   -3.0770   21.7460   -8.4950 C   0  0  1  0  0  0  0  0  0  0  0  0
    0.3280   21.1530   -7.9070 O   0  0  0  0  0  0  0  0  0  0  0  0
   -0.8660   19.0050   -8.7170 O   0  0  0  0  0  0  0  0  0  0  0  0
   -4.4290   21.2810   -8.5700 O   0  0  0  0  0  0  0  0  0  0  0  0
   -3.3800   23.2310   -8.1400 C   0  0  1  0  0  0  0  0  0  0  0  0
   -1.6180   18.3260   -5.8510 P   0  0  0  0  0  0  0  0  0  0  0  0
   -4.0980   23.9280   -9.1890 O   0  0  0  0  0  0  0  0  0  0  0  0
   -5.2470   22.0630   -7.6730 C   0  0  2  0  0  0  0  0  0  0  0  0
   -4.3140   23.0080   -6.9600 C   0  0  2  0  0  0  0  0  0  0  0  0
   -0.8030   17.2050   -5.0700 O   0  0  0  0  0  0  0  0  0  0  0  0
   -2.6430   17.8000   -6.7840 O   0  0  0  0  0  0  0  0  0  0  0  0
   -2.2130   19.1930   -4.6660 O   0  0  0  0  0  0  0  0  0  0  0  0
   -5.8940   21.2690   -6.6890 O   0  0  0  0  0  0  0  0  0  0  0  0
   -5.0890   24.1520   -6.5600 O   0  0  0  0  0  0  0  0  0  0  0  0
  1  2  1  0
  2  3  1  0
  4  1  1  1
  2  5  2  0
  2  6  1  6
  4  7  1  0
  4  8  1  0
  3  9  1  0
  8 10  1  6
  7 11  1  0
  8 12  1  0
 11 12  1  0
  9 13  1  0
  9 14  2  0
  9 15  1  0
 11 16  1  1
 12 17  1  6
M  END
>  <%Rank>  (302) 
22.977099

>  <N_hits>  (302) 
2

>  <submitter_name>  (302) 
nan

>  <original SMILES>  (302) 
nan

>  <∆G_unbound>  (302) 
1.974322

>  <∆G_bound>  (302) 
-10.457502

>  <regarded>  (302) 
mArh-5dus_0_A_β,5CB5_0_Q_α

>  <ref_pdb>  (302) 
nan

>  <smiles>  (302) 
O=P(O)(O)OP(=O)(O)OC1OC(O)C(O)C1O

>  <submitter_email>  (302) 
nan

>  <disregarded>  (302) 


>  <LE>  (302) 
-0.731284

>  <submitter_institution>  (302) 
nan

>  <ref_mols>  (302) 
mArh-5dus_0_A,5CB5_0_Q

>  <N_constrained_atoms>  (302) 
17.0

>  <ref_url>  (302) 
nan

>  <method>  (302) 
nan

>  <comRMSD>  (302) 
0.765855

>  <N_unconstrained_atoms>  (302) 
0.0

>  <∆∆G>  (302) 
-12.431824

>  <runtime>  (302) 
30.97068

>  <generation_date>  (302) 
nan

$$$$
mArh-5cms_L_11_L_β-mArh-2fav_B_0_B_δ
     RDKit          3D

 21 22  0  0  0  0  0  0  0  0999 V2000
   -1.4950   20.2650   -8.2390 O   0  0  0  0  0  0  0  0  0  0  0  0
   -0.1480   19.6140   -7.7210 P   0  0  0  0  0  0  0  0  0  0  0  0
   -0.4060   18.7110   -6.4550 O   0  0  0  0  0  0  0  0  0  0  0  0
    0.9910   20.5770   -7.5890 O   0  0  0  0  0  0  0  0  0  0  0  0
    0.0930   18.5390   -8.8630 O   0  0  0  0  0  0  0  0  0  0  0  0
   -1.7470   18.0370   -5.9880 P   0  0  2  0  0  0  0  0  0  0  0  0
   -1.2870   16.8090   -5.0800 O   0  0  0  0  0  0  0  0  0  0  0  0
   -2.7600   17.7200   -7.0040 O   0  0  0  0  0  0  0  0  0  0  0  0
   -2.2400   19.0820   -4.9050 O   0  0  0  0  0  0  0  0  0  0  0  0
   -0.3530   17.0700   -4.0410 C   0  0  0  0  0  0  0  0  0  0  0  0
   -0.5080   16.1470   -2.8280 C   0  0  0  0  0  0  0  0  0  0  0  0
   -1.7870   15.2860   -2.6730 C   0  0  1  0  0  0  0  0  0  0  0  0
   -1.3670   13.9260   -2.4410 N   0  0  0  0  0  0  0  0  0  0  0  0
   -2.7380   15.6450   -1.5880 N   0  0  0  0  0  0  0  0  0  0  0  0
   -1.5150   13.7120   -1.0210 C   0  0  2  0  0  0  0  0  0  0  0  0
   -2.8450   14.3890   -0.7600 C   0  0  1  0  0  0  0  0  0  0  0  0
   -0.4030   14.3740   -0.3590 N   0  0  0  0  0  0  0  0  0  0  0  0
   -3.0180   14.5810    0.7610 C   0  0  2  0  0  0  0  0  0  0  0  0
   -4.0730   15.5110    1.1020 N   0  0  0  0  0  0  0  0  0  0  0  0
   -0.5980   14.3450    1.0850 C   0  0  0  0  0  0  0  0  0  0  0  0
   -1.8210   15.0470    1.4350 N   0  0  0  0  0  0  0  0  0  0  0  0
  1  2  1  0
  2  3  1  0
  2  4  2  0
  2  5  1  0
  3  6  1  0
  6  7  1  0
  6  8  2  0
  6  9  1  1
  7 10  1  0
 10 11  1  0
 12 11  1  1
 12 13  1  0
 12 14  1  0
 15 13  1  6
 16 14  1  6
 15 16  1  0
 15 17  1  0
 16 18  1  0
 18 19  1  6
 17 20  1  0
 18 21  1  0
 20 21  1  0
M  END
>  <%Rank>  (303) 
23.053435

>  <N_hits>  (303) 
2

>  <submitter_name>  (303) 
nan

>  <original SMILES>  (303) 
nan

>  <∆G_unbound>  (303) 
4.513874

>  <∆G_bound>  (303) 
-9.501047

>  <regarded>  (303) 
mArh-5cms_L_11_L_β,mArh-2fav_B_0_B_δ

>  <ref_pdb>  (303) 
nan

>  <smiles>  (303) 
NC1NCNC2NC(CCOP(=O)(O)OP(=O)(O)O)NC12

>  <submitter_email>  (303) 
nan

>  <disregarded>  (303) 


>  <LE>  (303) 
-0.667377

>  <submitter_institution>  (303) 
nan

>  <ref_mols>  (303) 
mArh-5cms_L_11_L,mArh-2fav_B_0_B

>  <N_constrained_atoms>  (303) 
19.0

>  <ref_url>  (303) 
nan

>  <method>  (303) 
nan

>  <comRMSD>  (303) 
0.723514

>  <N_unconstrained_atoms>  (303) 
2.0

>  <∆∆G>  (303) 
-14.014921

>  <runtime>  (303) 
32.891132

>  <generation_date>  (303) 
nan

$$$$
MAC-120_0_A_α-5CB5_0_M_γ
     RDKit          3D

 17 18  0  0  0  0  0  0  0  0999 V2000
   -6.8040   15.1470   -1.5920 C   0  0  0  0  0  0  0  0  0  0  0  0
   -5.3820   14.9040   -1.1670 C   0  0  0  0  0  0  0  0  0  0  0  0
   -4.3920   14.5380   -2.0960 C   0  0  0  0  0  0  0  0  0  0  0  0
   -5.0090   15.0360    0.1760 C   0  0  0  0  0  0  0  0  0  0  0  0
   -3.6890   14.8050    0.5300 C   0  0  0  0  0  0  0  0  0  0  0  0
   -3.0860   14.3230   -1.6250 C   0  0  0  0  0  0  0  0  0  0  0  0
   -3.2290   14.9140    1.8330 N   0  0  0  0  0  0  0  0  0  0  0  0
   -1.9000   13.9020   -2.4610 C   0  0  0  0  0  0  0  0  0  0  0  0
   -2.7570   14.4600   -0.3390 N   0  0  0  0  0  0  0  0  0  0  0  0
   -1.5210   14.7970   -3.6320 C   0  0  1  0  0  0  0  0  0  0  0  0
   -0.4580   15.7320   -3.3170 O   0  0  0  0  0  0  0  0  0  0  0  0
   -0.9840   13.8920   -4.7370 C   0  0  2  0  0  0  0  0  0  0  0  0
   -0.7500   12.5700   -4.2590 O   0  0  0  0  0  0  0  0  0  0  0  0
    0.4150   15.8590   -4.4580 C   0  0  1  0  0  0  0  0  0  0  0  0
    0.3230   14.5250   -5.1930 C   0  0  1  0  0  0  0  0  0  0  0  0
   -0.0190   17.0510   -5.3050 C   0  0  0  0  0  0  0  0  0  0  0  0
    1.3910   13.6480   -4.8220 O   0  0  0  0  0  0  0  0  0  0  0  0
  1  2  1  0
  2  3  2  0
  2  4  1  0
  4  5  2  0
  3  6  1  0
  5  7  1  0
  6  8  1  0
  5  9  1  0
  6  9  2  0
 10  8  1  1
 10 11  1  0
 10 12  1  0
 12 13  1  1
 11 14  1  0
 12 15  1  0
 14 15  1  0
 14 16  1  6
 15 17  1  1
M  END
>  <%Rank>  (304) 
23.129771

>  <N_hits>  (304) 
2

>  <submitter_name>  (304) 
nan

>  <original SMILES>  (304) 
nan

>  <∆G_unbound>  (304) 
0.232808

>  <∆G_bound>  (304) 
-6.339151

>  <regarded>  (304) 
MAC-120_0_A_α,5CB5_0_M_γ

>  <ref_pdb>  (304) 
nan

>  <smiles>  (304) 
Cc1cc(N)nc(CC2OC(C)C(O)C2O)c1

>  <submitter_email>  (304) 
nan

>  <disregarded>  (304) 


>  <LE>  (304) 
-0.386586

>  <submitter_institution>  (304) 
nan

>  <ref_mols>  (304) 
MAC-120_0_A,5CB5_0_M

>  <N_constrained_atoms>  (304) 
16.0

>  <ref_url>  (304) 
nan

>  <method>  (304) 
nan

>  <comRMSD>  (304) 
0.540938

>  <N_unconstrained_atoms>  (304) 
1.0

>  <∆∆G>  (304) 
-6.571959

>  <runtime>  (304) 
36.888072

>  <generation_date>  (304) 
nan

$$$$
mArh-4gvw_0_A_α-mArh-x0895_1_A_α
     RDKit          3D

 26 27  0  0  0  0  0  0  0  0999 V2000
   -0.9240   20.1310   -6.0950 O   0  0  0  0  0  0  0  0  0  0  0  0
   -0.4280   20.4120   -7.4100 S   0  0  0  0  0  0  0  0  0  0  0  0
    0.6810   21.3040   -7.6600 O   0  0  0  0  0  0  0  0  0  0  0  0
   -0.0740   18.9470   -7.9480 O   0  0  0  0  0  0  0  0  0  0  0  0
   -1.8760   20.8960   -8.2400 C   0  0  0  0  0  0  0  0  0  0  0  0
   -2.2060   22.2900   -7.8140 C   0  0  0  0  0  0  0  0  0  0  0  0
    0.3880   18.3100   -6.7550 C   0  0  0  0  0  0  0  0  0  0  0  0
   -0.7940   17.7480   -5.9680 C   0  0  0  0  0  0  0  0  0  0  0  0
   -3.6360   22.4200   -7.5860 N   0  0  0  0  0  0  0  0  0  0  0  0
   -0.4380   16.5490   -5.0870 C   0  0  0  0  0  0  0  0  0  0  0  0
   -3.8470   23.6400   -6.8060 C   0  0  0  0  0  0  0  0  0  0  0  0
   -4.3000   22.6000   -8.8910 C   0  0  0  0  0  0  0  0  0  0  0  0
    0.2580   16.9180   -3.7740 C   0  0  0  0  0  0  0  0  0  0  0  0
   -5.3150   23.9070   -6.6820 C   0  0  0  0  0  0  0  0  0  0  0  0
   -5.7870   22.8960   -8.7270 C   0  0  0  0  0  0  0  0  0  0  0  0
   -0.1670   16.0470   -2.5890 C   0  0  0  0  0  0  0  0  0  0  0  0
   -5.9440   24.0820   -7.9560 O   0  0  0  0  0  0  0  0  0  0  0  0
   -1.5460   15.3820   -2.6580 C   0  0  0  0  0  0  0  0  0  0  0  0
   -1.9420   14.5980   -1.3990 C   0  0  0  0  0  0  0  0  0  0  0  0
   -2.8880   15.3540   -0.4810 C   0  0  1  0  0  0  0  0  0  0  0  0
   -4.2660   14.9600   -0.6750 N   0  0  0  0  0  0  0  0  0  0  0  0
   -2.7450   14.9910    1.0060 C   0  0  0  0  0  0  0  0  0  0  0  0
   -1.6970   14.8880    1.6410 O   0  0  0  0  0  0  0  0  0  0  0  0
   -3.9910   14.8010    1.5030 N   0  0  0  0  0  0  0  0  0  0  0  0
   -4.9170   14.8450    0.5260 C   0  0  0  0  0  0  0  0  0  0  0  0
   -6.1250   14.7920    0.6690 O   0  0  0  0  0  0  0  0  0  0  0  0
  1  2  2  0
  2  3  2  0
  2  4  1  0
  2  5  1  0
  5  6  1  0
  4  7  1  0
  7  8  1  0
  6  9  1  0
  8 10  1  0
  9 11  1  0
  9 12  1  0
 10 13  1  0
 11 14  1  0
 12 15  1  0
 13 16  1  0
 14 17  1  0
 15 17  1  0
 16 18  1  0
 18 19  1  0
 20 19  1  6
 20 21  1  0
 20 22  1  0
 22 23  2  0
 22 24  1  0
 21 25  1  0
 24 25  1  0
 25 26  2  0
M  END
>  <%Rank>  (305) 
23.206107

>  <N_hits>  (305) 
2

>  <submitter_name>  (305) 
nan

>  <original SMILES>  (305) 
nan

>  <∆G_unbound>  (305) 
0.185319

>  <∆G_bound>  (305) 
-11.953889

>  <regarded>  (305) 
mArh-4gvw_0_A_α,mArh-x0895_1_A_α

>  <ref_pdb>  (305) 
nan

>  <smiles>  (305) 
O=C1NC(=O)C(CCCCCCCOS(=O)(=O)CCN2CCOCC2)N1

>  <submitter_email>  (305) 
nan

>  <disregarded>  (305) 


>  <LE>  (305) 
-0.466893

>  <submitter_institution>  (305) 
nan

>  <ref_mols>  (305) 
mArh-4gvw_0_A,mArh-x0895_1_A

>  <N_constrained_atoms>  (305) 
19.0

>  <ref_url>  (305) 
nan

>  <method>  (305) 
nan

>  <comRMSD>  (305) 
0.493736

>  <N_unconstrained_atoms>  (305) 
7.0

>  <∆∆G>  (305) 
-12.139209

>  <runtime>  (305) 
45.351991

>  <generation_date>  (305) 
nan

$$$$
5L9K_0_B_δ-2FAV_0_B_β
     RDKit          3D

 21 22  0  0  0  0  0  0  0  0999 V2000
   -4.1130   15.7150    1.9470 N   0  0  0  0  0  0  0  0  0  0  0  0
   -3.0730   15.0250    1.2630 C   0  0  1  0  0  0  0  0  0  0  0  0
   -3.2910   14.7660   -0.1590 C   0  0  2  0  0  0  0  0  0  0  0  0
   -1.7610   15.6380    1.3430 N   0  0  0  0  0  0  0  0  0  0  0  0
   -2.2030   15.4190   -1.0480 C   0  0  2  0  0  0  0  0  0  0  0  0
   -4.4550   15.3710   -0.7090 N   0  0  0  0  0  0  0  0  0  0  0  0
   -0.7390   14.8750    0.7240 C   0  0  0  0  0  0  0  0  0  0  0  0
   -2.7970   15.1120   -2.3240 N   0  0  0  0  0  0  0  0  0  0  0  0
   -4.2060   15.0790   -2.1140 C   0  0  0  0  0  0  0  0  0  0  0  0
   -0.9560   14.7870   -0.7280 N   0  0  0  0  0  0  0  0  0  0  0  0
   -2.4190   15.7270   -3.5870 C   0  0  0  0  0  0  0  0  0  0  0  0
   -1.1700   16.5490   -3.7170 C   0  0  0  0  0  0  0  0  0  0  0  0
   -1.5480   17.8750   -4.0600 O   0  0  0  0  0  0  0  0  0  0  0  0
   -1.5560   18.1710   -5.6960 P   0  0  0  0  0  0  0  0  0  0  0  0
   -0.8830   19.6190   -6.1760 O   0  0  0  0  0  0  0  0  0  0  0  0
   -0.2250   17.4270   -5.8470 O   0  0  0  0  0  0  0  0  0  0  0  0
   -2.4780   17.2920   -6.6650 O   0  0  0  0  0  0  0  0  0  0  0  0
    0.0360   19.7430   -7.4700 P   0  0  0  0  0  0  0  0  0  0  0  0
   -0.9940   20.5240   -8.2820 O   0  0  0  0  0  0  0  0  0  0  0  0
    1.1670   20.9430   -7.5890 O   0  0  0  0  0  0  0  0  0  0  0  0
    0.0440   18.5450   -8.6750 O   0  0  0  0  0  0  0  0  0  0  0  0
  2  1  1  6
  2  3  1  0
  2  4  1  0
  3  5  1  0
  3  6  1  6
  4  7  1  0
  5  8  1  0
  6  9  1  0
  8  9  1  0
  5 10  1  6
  7 10  1  0
  8 11  1  0
 11 12  1  0
 12 13  1  0
 13 14  1  0
 14 15  1  0
 14 16  1  0
 14 17  1  0
 15 18  1  0
 18 19  1  0
 18 20  1  0
 18 21  1  0
M  CHG  1  20  -1
M  END
>  <%Rank>  (306) 
23.282443

>  <N_hits>  (306) 
2

>  <submitter_name>  (306) 
nan

>  <original SMILES>  (306) 
nan

>  <∆G_unbound>  (306) 
0.728963

>  <∆G_bound>  (306) 
-8.247043

>  <regarded>  (306) 
5L9K_0_B_δ,2FAV_0_B_β

>  <ref_pdb>  (306) 
nan

>  <smiles>  (306) 
NC1NCNC2C1NCN2CCO[PH](O)(O)O[PH]([O-])(O)O

>  <submitter_email>  (306) 
nan

>  <disregarded>  (306) 


>  <LE>  (306) 
-0.427429

>  <submitter_institution>  (306) 
nan

>  <ref_mols>  (306) 
5L9K_0_B,2FAV_0_B

>  <N_constrained_atoms>  (306) 
19.0

>  <ref_url>  (306) 
nan

>  <method>  (306) 
nan

>  <comRMSD>  (306) 
0.605751

>  <N_unconstrained_atoms>  (306) 
2.0

>  <∆∆G>  (306) 
-8.976006

>  <runtime>  (306) 
27.500991

>  <generation_date>  (306) 
nan

$$$$
5CB5_0_C_δ-mArh-5cb5_D_0_D_β
     RDKit          3D

 21 22  0  0  0  0  0  0  0  0999 V2000
   -4.3260   15.3620    1.5710 N   0  0  0  0  0  0  0  0  0  0  0  0
   -3.0120   15.6770    1.0230 C   0  0  2  0  0  0  0  0  0  0  0  0
   -2.9000   15.5860   -0.4970 C   0  0  1  0  0  0  0  0  0  0  0  0
   -1.9900   14.9350    1.7200 N   0  0  0  0  0  0  0  0  0  0  0  0
   -1.4470   15.4520   -0.9640 C   0  0  2  0  0  0  0  0  0  0  0  0
   -3.5930   14.5630   -1.2540 N   0  0  0  0  0  0  0  0  0  0  0  0
   -0.6720   14.9370    1.1150 C   0  0  0  0  0  0  0  0  0  0  0  0
   -1.6380   15.1220   -2.3680 N   0  0  0  0  0  0  0  0  0  0  0  0
   -3.0810   14.9580   -2.5700 C   0  0  0  0  0  0  0  0  0  0  0  0
   -0.7730   14.4260   -0.2260 N   0  0  0  0  0  0  0  0  0  0  0  0
   -0.8810   15.8660   -3.3770 C   0  0  0  0  0  0  0  0  0  0  0  0
   -1.5750   16.3880   -4.6470 C   0  0  0  0  0  0  0  0  0  0  0  0
   -1.5880   17.7990   -4.6490 O   0  0  0  0  0  0  0  0  0  0  0  0
   -1.8830   18.5950   -6.0020 P   0  0  1  0  0  0  0  0  0  0  0  0
   -0.5090   19.2340   -6.4030 O   0  0  0  0  0  0  0  0  0  0  0  0
   -2.6930   17.8340   -6.9820 O   0  0  0  0  0  0  0  0  0  0  0  0
   -2.6740   19.7810   -5.3100 O   0  0  0  0  0  0  0  0  0  0  0  0
   -0.0870   19.8360   -7.7820 P   0  0  0  0  0  0  0  0  0  0  0  0
   -1.3640   20.5840   -8.4010 O   0  0  0  0  0  0  0  0  0  0  0  0
    1.0600   20.7870   -7.7130 O   0  0  0  0  0  0  0  0  0  0  0  0
    0.0390   18.5950   -8.7800 O   0  0  0  0  0  0  0  0  0  0  0  0
  2  1  1  1
  2  3  1  0
  2  4  1  0
  3  5  1  0
  3  6  1  1
  4  7  1  0
  5  8  1  0
  6  9  1  0
  8  9  1  0
  5 10  1  1
  7 10  1  0
  8 11  1  0
 11 12  1  0
 12 13  1  0
 13 14  1  0
 14 15  1  0
 14 16  2  0
 14 17  1  1
 15 18  1  0
 18 19  1  0
 18 20  2  0
 18 21  1  0
M  END
>  <%Rank>  (307) 
23.358779

>  <N_hits>  (307) 
2

>  <submitter_name>  (307) 
nan

>  <original SMILES>  (307) 
nan

>  <∆G_unbound>  (307) 
5.739235

>  <∆G_bound>  (307) 
-10.774956

>  <regarded>  (307) 
5CB5_0_C_δ,mArh-5cb5_D_0_D_β

>  <ref_pdb>  (307) 
nan

>  <smiles>  (307) 
NC1NCNC2C1NCN2CCOP(=O)(O)OP(=O)(O)O

>  <submitter_email>  (307) 
nan

>  <disregarded>  (307) 


>  <LE>  (307) 
-0.78639

>  <submitter_institution>  (307) 
nan

>  <ref_mols>  (307) 
5CB5_0_C,mArh-5cb5_D_0_D

>  <N_constrained_atoms>  (307) 
19.0

>  <ref_url>  (307) 
nan

>  <method>  (307) 
nan

>  <comRMSD>  (307) 
0.785467

>  <N_unconstrained_atoms>  (307) 
2.0

>  <∆∆G>  (307) 
-16.514191

>  <runtime>  (307) 
33.710592

>  <generation_date>  (307) 
nan

$$$$
mArh-x0371_0_A_β-mArh-mac-242_0_A_α
     RDKit          3D

 20 23  0  0  0  0  0  0  0  0999 V2000
   -8.4680   14.1480    1.5570 C   0  0  0  0  0  0  0  0  0  0  0  0
   -7.2860   14.5020    0.7450 C   0  0  0  0  0  0  0  0  0  0  0  0
   -6.1160   14.9270    1.3350 N   0  0  0  0  0  0  0  0  0  0  0  0
   -7.1820   14.4640   -0.5760 N   0  0  0  0  0  0  0  0  0  0  0  0
   -5.2450   15.1740    0.3280 C   0  0  0  0  0  0  0  0  0  0  0  0
   -5.9070   14.8730   -0.8390 C   0  0  0  0  0  0  0  0  0  0  0  0
   -3.9300   15.6280    0.4600 C   0  0  0  0  0  0  0  0  0  0  0  0
   -5.2230   14.9940   -2.1550 C   0  0  0  0  0  0  0  0  0  0  0  0
   -3.1910   15.3210   -0.6100 C   0  0  0  0  0  0  0  0  0  0  0  0
   -3.7470   14.5950   -1.8010 C   0  0  2  0  0  0  0  0  0  0  0  0
   -2.6320   14.3420   -2.8130 C   0  0  0  0  0  0  0  0  0  0  0  0
   -3.7150   13.4040   -0.9050 C   0  0  0  0  0  0  0  0  0  0  0  0
   -2.5120   13.7990   -0.1080 C   0  0  0  0  0  0  0  0  0  0  0  0
   -1.4020   14.0670   -2.2870 C   0  0  0  0  0  0  0  0  0  0  0  0
   -2.5180   13.8970    1.2540 C   0  0  0  0  0  0  0  0  0  0  0  0
   -1.3400   14.1040   -0.8080 C   0  0  0  0  0  0  0  0  0  0  0  0
   -3.6840   13.6430    1.9450 N   0  0  0  0  0  0  0  0  0  0  0  0
   -0.2020   14.4510   -0.0930 C   0  0  0  0  0  0  0  0  0  0  0  0
   -1.4390   14.2340    1.9600 N   0  0  0  0  0  0  0  0  0  0  0  0
   -0.3090   14.4930    1.2850 C   0  0  0  0  0  0  0  0  0  0  0  0
  1  2  1  0
  2  3  1  0
  2  4  2  0
  3  5  1  0
  4  6  1  0
  5  6  2  0
  5  7  1  0
  6  8  1  0
  7  9  2  0
 10  8  1  6
 10  9  1  0
 10 11  1  0
 10 12  1  0
 12 13  1  0
 11 14  2  0
 13 15  1  0
 13 16  2  0
 14 16  1  0
 15 17  1  0
 16 18  1  0
 15 19  2  0
 18 20  2  0
 19 20  1  0
M  END
>  <%Rank>  (308) 
23.435115

>  <N_hits>  (308) 
2

>  <submitter_name>  (308) 
nan

>  <original SMILES>  (308) 
nan

>  <∆G_unbound>  (308) 
-0.032962

>  <∆G_bound>  (308) 
-3.899761

>  <regarded>  (308) 
mArh-x0371_0_A_β,mArh-mac-242_0_A_α

>  <ref_pdb>  (308) 
nan

>  <smiles>  (308) 
Cc1nc2c([nH]1)C=CC1(C=Cc3ccnc(N)c3C1)C2

>  <submitter_email>  (308) 
nan

>  <disregarded>  (308) 


>  <LE>  (308) 
-0.19334

>  <submitter_institution>  (308) 
nan

>  <ref_mols>  (308) 
mArh-x0371_0_A,mArh-mac-242_0_A

>  <N_constrained_atoms>  (308) 
20.0

>  <ref_url>  (308) 
nan

>  <method>  (308) 
nan

>  <comRMSD>  (308) 
0.56161

>  <N_unconstrained_atoms>  (308) 
0.0

>  <∆∆G>  (308) 
-3.866799

>  <runtime>  (308) 
33.933522

>  <generation_date>  (308) 
nan

$$$$
5MQX_0_A_δ-mArh-5cms_P_15_P_γ
     RDKit          3D

 20 22  0  0  0  0  0  0  0  0999 V2000
   -3.9370   15.4910    2.0500 N   0  0  0  0  0  0  0  0  0  0  0  0
   -2.9300   14.4960    1.7460 C   0  0  1  0  0  0  0  0  0  0  0  0
   -3.1380   13.7890    0.4390 C   0  0  2  0  0  0  0  0  0  0  0  0
   -1.6380   15.1410    1.7360 N   0  0  0  0  0  0  0  0  0  0  0  0
   -1.8700   14.0320   -0.3660 C   0  0  2  0  0  0  0  0  0  0  0  0
   -4.1900   14.1180   -0.4960 N   0  0  0  0  0  0  0  0  0  0  0  0
   -0.4980   14.2660    1.5180 C   0  0  0  0  0  0  0  0  0  0  0  0
   -2.2510   13.3950   -1.6290 N   0  0  0  0  0  0  0  0  0  0  0  0
   -3.7170   13.2200   -1.5500 C   0  0  0  0  0  0  0  0  0  0  0  0
   -0.7030   13.5290    0.2970 N   0  0  0  0  0  0  0  0  0  0  0  0
   -1.4930   12.2290   -2.1460 C   0  0  0  0  0  0  0  0  0  0  0  0
   -1.9520   11.8100   -3.5570 C   0  0  0  0  0  0  0  0  0  0  0  0
   -1.5420   12.7150   -4.5700 O   0  0  0  0  0  0  0  0  0  0  0  0
   -0.5480   13.6030   -4.0720 C   0  0  2  0  0  0  0  0  0  0  0  0
   -1.0510   14.8670   -3.4090 C   0  0  0  0  0  0  0  0  0  0  0  0
    0.3010   14.1810   -5.1870 C   0  0  2  0  0  0  0  0  0  0  0  0
    1.3700   13.2570   -5.4280 O   0  0  0  0  0  0  0  0  0  0  0  0
    0.0890   15.7180   -3.3490 O   0  0  0  0  0  0  0  0  0  0  0  0
    0.7840   15.5270   -4.5960 C   0  0  2  0  0  0  0  0  0  0  0  0
    0.5640   16.7820   -5.4220 C   0  0  0  0  0  0  0  0  0  0  0  0
  2  1  1  6
  2  3  1  0
  2  4  1  0
  3  5  1  0
  3  6  1  6
  4  7  1  0
  5  8  1  0
  6  9  1  0
  8  9  1  0
  5 10  1  1
  7 10  1  0
  8 11  1  0
 11 12  1  0
 12 13  1  0
 14 13  1  6
 14 15  1  0
 14 16  1  0
 16 17  1  1
 15 18  1  0
 16 19  1  0
 18 19  1  0
 19 20  1  6
M  END
>  <%Rank>  (309) 
23.51145

>  <N_hits>  (309) 
2

>  <submitter_name>  (309) 
nan

>  <original SMILES>  (309) 
nan

>  <∆G_unbound>  (309) 
1.585684

>  <∆G_bound>  (309) 
-1.721183

>  <regarded>  (309) 
5MQX_0_A_δ,mArh-5cms_P_15_P_γ

>  <ref_pdb>  (309) 
nan

>  <smiles>  (309) 
CC1OCC(OCCN2CNC3C(N)NCNC32)C1O

>  <submitter_email>  (309) 
nan

>  <disregarded>  (309) 


>  <LE>  (309) 
-0.165343

>  <submitter_institution>  (309) 
nan

>  <ref_mols>  (309) 
5MQX_0_A,mArh-5cms_P_15_P

>  <N_constrained_atoms>  (309) 
18.0

>  <ref_url>  (309) 
nan

>  <method>  (309) 
nan

>  <comRMSD>  (309) 
0.452701

>  <N_unconstrained_atoms>  (309) 
2.0

>  <∆∆G>  (309) 
-3.306867

>  <runtime>  (309) 
42.207924

>  <generation_date>  (309) 
nan

$$$$
6WOJ_0_D_β-5CB5_0_M_δ
     RDKit          3D

 21 22  0  0  0  0  0  0  0  0999 V2000
   -1.5110   20.3500   -7.1810 O   0  0  0  0  0  0  0  0  0  0  0  0
    0.0240   19.8150   -7.4820 P   0  0  0  0  0  0  0  0  0  0  0  0
   -0.0700   18.7340   -6.3630 O   0  0  0  0  0  0  0  0  0  0  0  0
    0.2950   21.0540   -8.2890 O   0  0  0  0  0  0  0  0  0  0  0  0
    0.2440   18.7210   -8.6530 O   0  0  0  0  0  0  0  0  0  0  0  0
   -1.4180   18.1750   -5.8170 P   0  0  0  0  0  0  0  0  0  0  0  0
   -0.7750   16.7620   -5.6190 O   0  0  0  0  0  0  0  0  0  0  0  0
   -1.7560   17.9040   -4.1440 O   0  0  0  0  0  0  0  0  0  0  0  0
   -2.6700   17.7230   -6.7880 O   0  0  0  0  0  0  0  0  0  0  0  0
   -0.7100   17.0260   -3.7390 C   0  0  0  0  0  0  0  0  0  0  0  0
   -1.1870   15.6660   -3.3980 C   0  0  0  0  0  0  0  0  0  0  0  0
   -1.7980   15.0620   -2.3500 N   0  0  0  0  0  0  0  0  0  0  0  0
   -1.5030   15.2030   -1.0110 C   0  0  1  0  0  0  0  0  0  0  0  0
   -3.2700   15.3370   -2.4850 C   0  0  0  0  0  0  0  0  0  0  0  0
   -2.8210   14.8530   -0.3070 C   0  0  2  0  0  0  0  0  0  0  0  0
   -3.7700   15.4570   -1.1480 N   0  0  0  0  0  0  0  0  0  0  0  0
   -0.4800   14.4630   -0.3960 N   0  0  0  0  0  0  0  0  0  0  0  0
   -0.3750   14.9260    1.0110 C   0  0  0  0  0  0  0  0  0  0  0  0
   -2.6880   15.5190    1.0120 C   0  0  1  0  0  0  0  0  0  0  0  0
   -3.9680   15.4120    1.7230 N   0  0  0  0  0  0  0  0  0  0  0  0
   -1.6280   14.8980    1.6820 N   0  0  0  0  0  0  0  0  0  0  0  0
  1  2  1  0
  2  3  1  0
  2  4  1  0
  2  5  1  0
  3  6  1  0
  6  7  1  0
  6  8  1  0
  6  9  1  0
  8 10  1  0
 10 11  1  0
 11 12  1  0
 12 13  1  0
 12 14  1  0
 13 15  1  0
 14 16  1  0
 15 16  1  6
 13 17  1  1
 17 18  1  0
 15 19  1  0
 19 20  1  1
 18 21  1  0
 19 21  1  0
M  CHG  1   4  -1
M  END
>  <%Rank>  (310) 
23.587786

>  <N_hits>  (310) 
2

>  <submitter_name>  (310) 
nan

>  <original SMILES>  (310) 
nan

>  <∆G_unbound>  (310) 
2.722826

>  <∆G_bound>  (310) 
-6.569642

>  <regarded>  (310) 
6WOJ_0_D_β,5CB5_0_M_δ

>  <ref_pdb>  (310) 
nan

>  <smiles>  (310) 
NC1NCNC2C1NCN2CCO[PH](O)(O)O[PH]([O-])(O)O

>  <submitter_email>  (310) 
nan

>  <disregarded>  (310) 


>  <LE>  (310) 
-0.442498

>  <submitter_institution>  (310) 
nan

>  <ref_mols>  (310) 
6WOJ_0_D,5CB5_0_M

>  <N_constrained_atoms>  (310) 
19.0

>  <ref_url>  (310) 
nan

>  <method>  (310) 
nan

>  <comRMSD>  (310) 
0.615508

>  <N_unconstrained_atoms>  (310) 
2.0

>  <∆∆G>  (310) 
-9.292468

>  <runtime>  (310) 
39.028777

>  <generation_date>  (310) 
nan

$$$$
5CB3_0_A_α-mArh-5cms_D_3_D_α
     RDKit          3D

 17 17  0  0  0  0  0  0  0  0999 V2000
   -1.7840   21.1970   -8.4620 C   0  0  0  0  0  0  0  0  0  0  0  0
   -0.8870   19.7910   -7.8050 P   0  0  0  0  0  0  0  0  0  0  0  0
   -0.8350   19.3120   -6.3300 O   0  0  0  0  0  0  0  0  0  0  0  0
   -3.0050   21.8200   -7.8610 C   0  0  2  0  0  0  0  0  0  0  0  0
   -0.0410   18.7870   -8.9220 O   0  0  0  0  0  0  0  0  0  0  0  0
    0.4910   20.5070   -7.7120 O   0  0  0  0  0  0  0  0  0  0  0  0
   -4.1740   21.1420   -7.8710 O   0  0  0  0  0  0  0  0  0  0  0  0
   -3.4830   23.1850   -8.2280 C   0  0  1  0  0  0  0  0  0  0  0  0
   -4.2370   23.3360   -9.3680 O   0  0  0  0  0  0  0  0  0  0  0  0
   -1.5580   18.0660   -5.6970 P   0  0  0  0  0  0  0  0  0  0  0  0
   -5.1200   21.8980   -7.2240 C   0  0  2  0  0  0  0  0  0  0  0  0
   -4.4910   23.2790   -7.0550 C   0  0  2  0  0  0  0  0  0  0  0  0
   -5.4330   21.4500   -5.9520 O   0  0  0  0  0  0  0  0  0  0  0  0
   -5.4260   24.2660   -7.2010 O   0  0  0  0  0  0  0  0  0  0  0  0
   -0.3660   17.1510   -6.0440 O   0  0  0  0  0  0  0  0  0  0  0  0
   -2.7120   17.3640   -6.6950 O   0  0  0  0  0  0  0  0  0  0  0  0
   -2.4170   19.1020   -5.0120 O   0  0  0  0  0  0  0  0  0  0  0  0
  1  2  1  0
  2  3  1  0
  4  1  1  6
  2  5  1  0
  2  6  1  0
  4  7  1  0
  4  8  1  0
  8  9  1  6
  3 10  1  0
  7 11  1  0
  8 12  1  0
 11 12  1  0
 11 13  1  1
 12 14  1  6
 10 15  1  0
 10 16  1  0
 10 17  1  0
M  CHG  2   5  -1  16  -1
M  END
>  <%Rank>  (311) 
23.664122

>  <N_hits>  (311) 
2

>  <submitter_name>  (311) 
nan

>  <original SMILES>  (311) 
nan

>  <∆G_unbound>  (311) 
1.876248

>  <∆G_bound>  (311) 
-8.842275

>  <regarded>  (311) 
5CB3_0_A_α,mArh-5cms_D_3_D_α

>  <ref_pdb>  (311) 
nan

>  <smiles>  (311) 
[O-][PH](O)(O)O[PH]([O-])(O)CC1OC(O)C(O)C1O

>  <submitter_email>  (311) 
nan

>  <disregarded>  (311) 


>  <LE>  (311) 
-0.630501

>  <submitter_institution>  (311) 
nan

>  <ref_mols>  (311) 
5CB3_0_A,mArh-5cms_D_3_D

>  <N_constrained_atoms>  (311) 
17.0

>  <ref_url>  (311) 
nan

>  <method>  (311) 
nan

>  <comRMSD>  (311) 
0.720653

>  <N_unconstrained_atoms>  (311) 
0.0

>  <∆∆G>  (311) 
-10.718523

>  <runtime>  (311) 
25.54849

>  <generation_date>  (311) 
nan

$$$$
5CMS_0_J_γ-mArh-mac-194_0_A_α
     RDKit          3D

 21 23  0  0  0  0  0  0  0  0999 V2000
   -1.7430   12.3700   -4.5720 O   0  0  0  0  0  0  0  0  0  0  0  0
   -1.5270   13.7480   -4.8310 C   0  0  1  0  0  0  0  0  0  0  0  0
   -1.7260   14.6810   -3.6250 C   0  0  1  0  0  0  0  0  0  0  0  0
   -0.1020   14.0480   -5.2530 C   0  0  2  0  0  0  0  0  0  0  0  0
    0.8250   13.2830   -4.4880 O   0  0  0  0  0  0  0  0  0  0  0  0
   -1.7910   13.9850   -2.2910 C   0  0  0  0  0  0  0  0  0  0  0  0
   -0.6290   15.6180   -3.6260 O   0  0  0  0  0  0  0  0  0  0  0  0
   -0.1190   15.5450   -4.9540 C   0  0  1  0  0  0  0  0  0  0  0  0
    1.1850   16.2740   -5.0600 C   0  0  0  0  0  0  0  0  0  0  0  0
   -2.9130   14.2340   -1.3230 C   0  0  0  0  0  0  0  0  0  0  0  0
   -2.4790   14.3370   -0.0140 C   0  0  0  0  0  0  0  0  0  0  0  0
   -4.3000   14.3450   -1.6230 C   0  0  0  0  0  0  0  0  0  0  0  0
   -5.2020   14.5380   -0.5480 C   0  0  0  0  0  0  0  0  0  0  0  0
   -3.3680   14.5300    1.0150 C   0  0  0  0  0  0  0  0  0  0  0  0
   -6.6780   14.6480   -0.6820 C   0  0  0  0  0  0  0  0  0  0  0  0
   -4.7180   14.6210    0.7520 C   0  0  0  0  0  0  0  0  0  0  0  0
   -7.2470   14.8610   -1.7460 O   0  0  0  0  0  0  0  0  0  0  0  0
   -7.3860   14.4830    0.4990 N   0  0  0  0  0  0  0  0  0  0  0  0
   -5.5340   14.7770    1.8550 N   0  0  0  0  0  0  0  0  0  0  0  0
   -6.7950   14.6800    1.7170 C   0  0  0  0  0  0  0  0  0  0  0  0
   -7.5460   14.7710    2.8380 N   0  0  0  0  0  0  0  0  0  0  0  0
  2  1  1  1
  2  3  1  0
  2  4  1  0
  4  5  1  1
  3  6  1  1
  3  7  1  0
  4  8  1  0
  7  8  1  0
  8  9  1  1
  6 10  1  0
 10 11  2  0
 10 12  1  0
 12 13  2  0
 11 14  1  0
 13 15  1  0
 13 16  1  0
 14 16  2  0
 15 17  2  0
 15 18  1  0
 16 19  1  0
 18 20  1  0
 19 20  2  0
 20 21  1  0
M  END
>  <%Rank>  (312) 
23.740458

>  <N_hits>  (312) 
2

>  <submitter_name>  (312) 
nan

>  <original SMILES>  (312) 
nan

>  <∆G_unbound>  (312) 
0.311471

>  <∆G_bound>  (312) 
-5.118027

>  <regarded>  (312) 
5CMS_0_J_γ,mArh-mac-194_0_A_α

>  <ref_pdb>  (312) 
nan

>  <smiles>  (312) 
CC1OC(Cc2ccc3nc(N)[nH]c(=O)c3c2)C(O)C1O

>  <submitter_email>  (312) 
nan

>  <disregarded>  (312) 


>  <LE>  (312) 
-0.258548

>  <submitter_institution>  (312) 
nan

>  <ref_mols>  (312) 
5CMS_0_J,mArh-mac-194_0_A

>  <N_constrained_atoms>  (312) 
20.0

>  <ref_url>  (312) 
nan

>  <method>  (312) 
nan

>  <comRMSD>  (312) 
0.571812

>  <N_unconstrained_atoms>  (312) 
1.0

>  <∆∆G>  (312) 
-5.429499

>  <runtime>  (312) 
24.880522

>  <generation_date>  (312) 
nan

$$$$
mArh-5cb5_P_0_P_β-mArh-5cms_H_7_H_α
     RDKit          3D

 17 17  0  0  0  0  0  0  0  0999 V2000
   -1.6730   20.8730   -8.4550 O   0  0  0  0  0  0  0  0  0  0  0  0
   -0.3470   20.0920   -7.9510 P   0  0  2  0  0  0  0  0  0  0  0  0
   -0.4610   19.3790   -6.5420 O   0  0  0  0  0  0  0  0  0  0  0  0
   -1.6500   21.6620   -9.6660 C   0  0  1  0  0  0  0  0  0  0  0  0
    0.8720   20.9580   -7.9650 O   0  0  0  0  0  0  0  0  0  0  0  0
   -0.2280   18.7850   -8.8630 O   0  0  0  0  0  0  0  0  0  0  0  0
   -2.9450   22.1750   -9.9960 O   0  0  0  0  0  0  0  0  0  0  0  0
   -0.7090   22.8970   -9.6030 C   0  0  1  0  0  0  0  0  0  0  0  0
   -1.6720   18.4700   -6.0910 P   0  0  0  0  0  0  0  0  0  0  0  0
    0.6020   22.7210  -10.1510 O   0  0  0  0  0  0  0  0  0  0  0  0
   -2.7170   23.2620  -10.8790 C   0  0  2  0  0  0  0  0  0  0  0  0
   -1.4380   23.9610  -10.3910 C   0  0  2  0  0  0  0  0  0  0  0  0
   -1.0360   17.3270   -5.1880 O   0  0  0  0  0  0  0  0  0  0  0  0
   -2.6270   17.9680   -7.0870 O   0  0  0  0  0  0  0  0  0  0  0  0
   -2.3310   19.4280   -5.0050 O   0  0  0  0  0  0  0  0  0  0  0  0
   -3.8360   24.1290  -10.7940 O   0  0  0  0  0  0  0  0  0  0  0  0
   -0.6570   24.4360  -11.4840 O   0  0  0  0  0  0  0  0  0  0  0  0
  1  2  1  0
  2  3  1  0
  4  1  1  1
  2  5  2  0
  2  6  1  6
  4  7  1  0
  4  8  1  0
  3  9  1  0
  8 10  1  6
  7 11  1  0
  8 12  1  0
 11 12  1  0
  9 13  1  0
  9 14  2  0
  9 15  1  0
 11 16  1  1
 12 17  1  6
M  END
>  <%Rank>  (313) 
23.816794

>  <N_hits>  (313) 
2

>  <submitter_name>  (313) 
nan

>  <original SMILES>  (313) 
nan

>  <∆G_unbound>  (313) 
1.974322

>  <∆G_bound>  (313) 
-6.8038

>  <regarded>  (313) 
mArh-5cb5_P_0_P_β,mArh-5cms_H_7_H_α

>  <ref_pdb>  (313) 
nan

>  <smiles>  (313) 
O=P(O)(O)OP(=O)(O)OC1OC(O)C(O)C1O

>  <submitter_email>  (313) 
nan

>  <disregarded>  (313) 


>  <LE>  (313) 
-0.51636

>  <submitter_institution>  (313) 
nan

>  <ref_mols>  (313) 
mArh-5cb5_P_0_P,mArh-5cms_H_7_H

>  <N_constrained_atoms>  (313) 
17.0

>  <ref_url>  (313) 
nan

>  <method>  (313) 
nan

>  <comRMSD>  (313) 
0.664973

>  <N_unconstrained_atoms>  (313) 
0.0

>  <∆∆G>  (313) 
-8.778122

>  <runtime>  (313) 
26.136338

>  <generation_date>  (313) 
nan

$$$$
mArh-5lw0_A_0_A_γ-mArh-x0104_0_A_β
     RDKit          3D

 18 19  0  0  0  0  0  0  0  0999 V2000
   -0.8900   11.9510   -3.7540 O   0  0  0  0  0  0  0  0  0  0  0  0
   -0.3450   13.2320   -3.4620 C   0  0  2  0  0  0  0  0  0  0  0  0
   -1.3720   14.3450   -3.3720 C   0  0  1  0  0  0  0  0  0  0  0  0
    0.5090   13.7400   -4.6310 C   0  0  2  0  0  0  0  0  0  0  0  0
    1.8930   13.5770   -4.2920 O   0  0  0  0  0  0  0  0  0  0  0  0
   -2.2680   14.3860   -2.1480 C   0  0  0  0  0  0  0  0  0  0  0  0
   -0.5710   15.5090   -3.4850 O   0  0  0  0  0  0  0  0  0  0  0  0
    0.1000   15.2250   -4.7180 C   0  0  1  0  0  0  0  0  0  0  0  0
    1.2340   16.1960   -4.8590 C   0  0  0  0  0  0  0  0  0  0  0  0
   -3.4570   15.3010   -2.4430 C   0  0  0  0  0  0  0  0  0  0  0  0
   -4.7010   14.6170   -2.3520 O   0  0  0  0  0  0  0  0  0  0  0  0
   -5.2220   14.6690   -1.0830 C   0  0  0  0  0  0  0  0  0  0  0  0
   -4.3840   14.7930   -0.0390 N   0  0  0  0  0  0  0  0  0  0  0  0
   -6.5980   14.5850   -0.9720 C   0  0  0  0  0  0  0  0  0  0  0  0
   -4.9590   14.8370    1.1750 C   0  0  0  0  0  0  0  0  0  0  0  0
   -7.1580   14.6270    0.2990 C   0  0  0  0  0  0  0  0  0  0  0  0
   -6.3320   14.7570    1.4110 C   0  0  0  0  0  0  0  0  0  0  0  0
   -6.8610   14.8090    2.6960 N   0  0  0  0  0  0  0  0  0  0  0  0
  2  1  1  6
  2  3  1  0
  2  4  1  0
  4  5  1  1
  3  6  1  1
  3  7  1  0
  4  8  1  0
  7  8  1  0
  8  9  1  1
  6 10  1  0
 10 11  1  0
 11 12  1  0
 12 13  2  0
 12 14  1  0
 13 15  1  0
 14 16  2  0
 15 17  2  0
 16 17  1  0
 17 18  1  0
M  END
>  <%Rank>  (314) 
23.89313

>  <N_hits>  (314) 
2

>  <submitter_name>  (314) 
nan

>  <original SMILES>  (314) 
nan

>  <∆G_unbound>  (314) 
0.22395

>  <∆G_bound>  (314) 
-5.022613

>  <regarded>  (314) 
mArh-5lw0_A_0_A_γ,mArh-x0104_0_A_β

>  <ref_pdb>  (314) 
nan

>  <smiles>  (314) 
CC1OC(CCOc2ccc(N)cn2)C(O)C1O

>  <submitter_email>  (314) 
nan

>  <disregarded>  (314) 


>  <LE>  (314) 
-0.291476

>  <submitter_institution>  (314) 
nan

>  <ref_mols>  (314) 
mArh-5lw0_A_0_A,mArh-x0104_0_A

>  <N_constrained_atoms>  (314) 
17.0

>  <ref_url>  (314) 
nan

>  <method>  (314) 
nan

>  <comRMSD>  (314) 
0.523499

>  <N_unconstrained_atoms>  (314) 
1.0

>  <∆∆G>  (314) 
-5.246563

>  <runtime>  (314) 
30.970207

>  <generation_date>  (314) 
nan

$$$$
5CB5_0_Q_γ-mArh-EU0293_0_A_α
     RDKit          3D

 20 22  0  0  0  0  0  0  0  0999 V2000
   -1.1490   13.5890   -3.5870 O   0  0  0  0  0  0  0  0  0  0  0  0
    0.1790   13.8910   -3.9960 C   0  0  2  0  0  0  0  0  0  0  0  0
    0.9870   14.9170   -3.2000 C   0  0  2  0  0  0  0  0  0  0  0  0
    0.1750   14.6220   -5.3150 C   0  0  2  0  0  0  0  0  0  0  0  0
    1.2020   13.9580   -6.0430 O   0  0  0  0  0  0  0  0  0  0  0  0
    1.3020   14.7240   -1.7170 C   0  0  0  0  0  0  0  0  0  0  0  0
    0.4330   16.1800   -3.5470 O   0  0  0  0  0  0  0  0  0  0  0  0
    0.5660   16.0920   -4.9640 C   0  0  2  0  0  0  0  0  0  0  0  0
   -0.2600   17.2030   -5.5920 C   0  0  0  0  0  0  0  0  0  0  0  0
    0.6730   13.6040   -1.0960 N   0  0  0  0  0  0  0  0  0  0  0  0
   -0.4720   13.9190   -0.4150 C   0  0  0  0  0  0  0  0  0  0  0  0
   -0.4740   14.0450    0.9780 C   0  0  0  0  0  0  0  0  0  0  0  0
   -1.6740   14.1340   -1.0520 C   0  0  0  0  0  0  0  0  0  0  0  0
   -1.5420   14.3390    1.7360 N   0  0  0  0  0  0  0  0  0  0  0  0
   -2.8010   14.4360   -0.3270 C   0  0  0  0  0  0  0  0  0  0  0  0
   -2.6860   14.5150    1.0530 C   0  0  0  0  0  0  0  0  0  0  0  0
   -4.1070   14.6600   -1.0250 C   0  0  0  0  0  0  0  0  0  0  0  0
   -5.2110   14.5360   -0.1400 O   0  0  0  0  0  0  0  0  0  0  0  0
   -3.8970   14.7940    1.8440 C   0  0  0  0  0  0  0  0  0  0  0  0
   -4.9860   15.3680    0.9910 C   0  0  0  0  0  0  0  0  0  0  0  0
  2  1  1  1
  2  3  1  0
  2  4  1  0
  4  5  1  6
  3  6  1  1
  3  7  1  0
  4  8  1  0
  7  8  1  0
  8  9  1  6
  6 10  1  0
 10 11  1  0
 11 12  2  0
 11 13  1  0
 12 14  1  0
 13 15  2  0
 14 16  2  0
 15 16  1  0
 15 17  1  0
 17 18  1  0
 16 19  1  0
 18 20  1  0
 19 20  1  0
M  END
>  <%Rank>  (315) 
23.969466

>  <N_hits>  (315) 
2

>  <submitter_name>  (315) 
nan

>  <original SMILES>  (315) 
nan

>  <∆G_unbound>  (315) 
0.470329

>  <∆G_bound>  (315) 
-7.359469

>  <regarded>  (315) 
5CB5_0_Q_γ,mArh-EU0293_0_A_α

>  <ref_pdb>  (315) 
nan

>  <smiles>  (315) 
CC1OC(CNc2cnc3c(c2)COCC3)C(O)C1O

>  <submitter_email>  (315) 
nan

>  <disregarded>  (315) 


>  <LE>  (315) 
-0.39149

>  <submitter_institution>  (315) 
nan

>  <ref_mols>  (315) 
5CB5_0_Q,mArh-EU0293_0_A

>  <N_constrained_atoms>  (315) 
19.0

>  <ref_url>  (315) 
nan

>  <method>  (315) 
nan

>  <comRMSD>  (315) 
0.6188

>  <N_unconstrained_atoms>  (315) 
1.0

>  <∆∆G>  (315) 
-7.829798

>  <runtime>  (315) 
27.917551

>  <generation_date>  (315) 
nan

$$$$
mArh-5cms_E_5_E_γ-mArh-x0742_0_A_α
     RDKit          3D

 25 28  0  0  0  0  0  0  0  0999 V2000
   -1.0620   11.9870   -4.5460 O   0  0  0  0  0  0  0  0  0  0  0  0
   -1.1160   13.4010   -4.6220 C   0  0  1  0  0  0  0  0  0  0  0  0
   -1.1220   14.1120   -3.2710 C   0  0  2  0  0  0  0  0  0  0  0  0
    0.0950   14.0080   -5.2960 C   0  0  2  0  0  0  0  0  0  0  0  0
    1.2860   13.3570   -4.8730 O   0  0  0  0  0  0  0  0  0  0  0  0
   -0.2760   15.2790   -3.3930 O   0  0  0  0  0  0  0  0  0  0  0  0
   -0.1030   15.4380   -4.8020 C   0  0  1  0  0  0  0  0  0  0  0  0
   -0.7400   13.2370   -2.0920 C   0  0  0  0  0  0  0  0  0  0  0  0
    1.0040   16.4070   -5.1070 C   0  0  0  0  0  0  0  0  0  0  0  0
   -1.0870   13.7430   -0.7300 C   0  0  0  0  0  0  0  0  0  0  0  0
   -0.0110   13.9070    0.1340 C   0  0  0  0  0  0  0  0  0  0  0  0
   -2.3850   14.0520   -0.2670 C   0  0  0  0  0  0  0  0  0  0  0  0
   -3.6740   13.9330   -1.0810 C   0  0  1  0  0  0  0  0  0  0  0  0
   -0.2330   14.3520    1.4090 C   0  0  0  0  0  0  0  0  0  0  0  0
   -2.4740   14.4990    1.0550 C   0  0  0  0  0  0  0  0  0  0  0  0
   -4.9390   13.5670   -0.2310 C   0  0  1  0  0  0  0  0  0  0  0  0
   -4.0400   15.2190   -1.8460 C   0  0  0  0  0  0  0  0  0  0  0  0
   -1.4330   14.6470    1.8780 N   0  0  0  0  0  0  0  0  0  0  0  0
   -3.7970   14.8410    1.6290 C   0  0  0  0  0  0  0  0  0  0  0  0
   -5.4450   12.1540   -0.5180 C   0  0  0  0  0  0  0  0  0  0  0  0
   -4.7530   13.7190    1.2880 C   0  0  0  0  0  0  0  0  0  0  0  0
   -6.0380   14.5280   -0.7190 C   0  0  0  0  0  0  0  0  0  0  0  0
   -5.3330   15.7430   -1.2470 C   0  0  0  0  0  0  0  0  0  0  0  0
   -4.9860   11.4730   -1.4380 O   0  0  0  0  0  0  0  0  0  0  0  0
   -6.5530   11.6250    0.3540 C   0  0  0  0  0  0  0  0  0  0  0  0
  2  1  1  1
  2  3  1  0
  2  4  1  0
  4  5  1  1
  3  6  1  0
  4  7  1  0
  6  7  1  0
  3  8  1  1
  7  9  1  1
  8 10  1  0
 10 11  2  0
 10 12  1  0
 12 13  1  0
 11 14  1  0
 12 15  2  0
 13 16  1  0
 13 17  1  1
 14 18  2  0
 15 18  1  0
 15 19  1  0
 16 20  1  1
 16 21  1  0
 19 21  1  0
 16 22  1  0
 17 23  1  0
 22 23  1  0
 20 24  2  0
 20 25  1  0
M  END
>  <%Rank>  (316) 
24.045802

>  <N_hits>  (316) 
2

>  <submitter_name>  (316) 
nan

>  <original SMILES>  (316) 
nan

>  <∆G_unbound>  (316) 
0.109762

>  <∆G_bound>  (316) 
-10.391467

>  <regarded>  (316) 
mArh-5cms_E_5_E_γ,mArh-x0742_0_A_α

>  <ref_pdb>  (316) 
nan

>  <smiles>  (316) 
CC(=O)C12CCCC1c1c(CC3OC(C)C(O)C3O)ccnc1CC2

>  <submitter_email>  (316) 
nan

>  <disregarded>  (316) 


>  <LE>  (316) 
-0.420049

>  <submitter_institution>  (316) 
nan

>  <ref_mols>  (316) 
mArh-5cms_E_5_E,mArh-x0742_0_A

>  <N_constrained_atoms>  (316) 
19.0

>  <ref_url>  (316) 
nan

>  <method>  (316) 
nan

>  <comRMSD>  (316) 
0.501909

>  <N_unconstrained_atoms>  (316) 
6.0

>  <∆∆G>  (316) 
-10.501229

>  <runtime>  (316) 
30.95971

>  <generation_date>  (316) 
nan

$$$$
mArh-x0681_0_A_α-5CMS_0_F_γ
     RDKit          3D

 20 22  0  0  0  0  0  0  0  0999 V2000
   -4.7950   15.5420   -2.6890 N   0  0  0  0  0  0  0  0  0  0  0  0
   -3.6280   15.0360   -2.2100 C   0  0  0  0  0  0  0  0  0  0  0  0
   -2.5910   14.9400   -3.0140 N   0  0  0  0  0  0  0  0  0  0  0  0
   -3.8860   14.6780   -0.7270 C   0  0  1  0  0  0  0  0  0  0  0  0
   -4.7700   13.4880   -0.6430 C   0  0  0  0  0  0  0  0  0  0  0  0
   -2.9260   14.7360    0.4560 C   0  0  0  0  0  0  0  0  0  0  0  0
   -1.2130   14.4370   -2.8630 C   0  0  2  0  0  0  0  0  0  0  0  0
   -5.4330   13.3440    0.5020 N   0  0  0  0  0  0  0  0  0  0  0  0
   -3.7380   14.5720    1.7620 C   0  0  0  0  0  0  0  0  0  0  0  0
   -5.0460   12.5220   -1.4920 N   0  0  0  0  0  0  0  0  0  0  0  0
   -0.1740   15.4310   -3.0600 O   0  0  0  0  0  0  0  0  0  0  0  0
   -1.0890   13.5000   -4.1050 C   0  0  2  0  0  0  0  0  0  0  0  0
   -0.5910   12.2030   -3.7670 O   0  0  0  0  0  0  0  0  0  0  0  0
   -5.2420   14.3110    1.5360 C   0  0  0  0  0  0  0  0  0  0  0  0
   -6.2050   12.2310    0.4420 C   0  0  0  0  0  0  0  0  0  0  0  0
   -5.9510   11.7280   -0.8150 C   0  0  0  0  0  0  0  0  0  0  0  0
   -0.2100   15.6210   -4.4820 C   0  0  2  0  0  0  0  0  0  0  0  0
   -0.0950   14.1950   -5.0250 C   0  0  1  0  0  0  0  0  0  0  0  0
    0.7970   16.6490   -4.9520 C   0  0  0  0  0  0  0  0  0  0  0  0
    1.1920   13.5950   -4.8720 O   0  0  0  0  0  0  0  0  0  0  0  0
  1  2  1  0
  2  3  2  3
  4  2  1  6
  4  5  1  0
  4  6  1  0
  7  3  1  6
  5  8  1  0
  6  9  1  0
  5 10  2  0
  7 11  1  0
  7 12  1  0
 12 13  1  1
  8 14  1  0
  9 14  1  0
  8 15  1  0
 10 16  1  0
 15 16  2  0
 11 17  1  0
 12 18  1  0
 17 18  1  0
 17 19  1  6
 18 20  1  1
M  END
>  <%Rank>  (317) 
24.122137

>  <N_hits>  (317) 
2

>  <submitter_name>  (317) 
nan

>  <original SMILES>  (317) 
nan

>  <∆G_unbound>  (317) 
0.554107

>  <∆G_bound>  (317) 
-5.972661

>  <regarded>  (317) 
mArh-x0681_0_A_α,5CMS_0_F_γ

>  <ref_pdb>  (317) 
nan

>  <smiles>  (317) 
CC1OC(N=C(N)C2CCCn3ccnc32)C(O)C1O

>  <submitter_email>  (317) 
nan

>  <disregarded>  (317) 


>  <LE>  (317) 
-0.326338

>  <submitter_institution>  (317) 
nan

>  <ref_mols>  (317) 
mArh-x0681_0_A,5CMS_0_F

>  <N_constrained_atoms>  (317) 
20.0

>  <ref_url>  (317) 
nan

>  <method>  (317) 
nan

>  <comRMSD>  (317) 
0.632318

>  <N_unconstrained_atoms>  (317) 
0.0

>  <∆∆G>  (317) 
-6.526768

>  <runtime>  (317) 
35.238044

>  <generation_date>  (317) 
nan

$$$$
5CB5_0_F_δ-mArh-5cms_F_6_F_β
     RDKit          3D

 21 22  0  0  0  0  0  0  0  0999 V2000
   -3.6990   15.2590    1.6920 N   0  0  0  0  0  0  0  0  0  0  0  0
   -2.4400   15.2160    0.9790 C   0  0  2  0  0  0  0  0  0  0  0  0
   -2.4960   14.4510   -0.3160 C   0  0  2  0  0  0  0  0  0  0  0  0
   -1.4430   14.6000    1.8050 N   0  0  0  0  0  0  0  0  0  0  0  0
   -1.1060   14.7050   -0.8150 C   0  0  2  0  0  0  0  0  0  0  0  0
   -3.3480   14.9840   -1.4210 N   0  0  0  0  0  0  0  0  0  0  0  0
   -0.1020   14.4350    1.2290 C   0  0  0  0  0  0  0  0  0  0  0  0
   -1.2300   14.5070   -2.2100 N   0  0  0  0  0  0  0  0  0  0  0  0
   -2.3000   15.4540   -2.3250 C   0  0  1  0  0  0  0  0  0  0  0  0
   -0.1110   13.9710   -0.1420 N   0  0  0  0  0  0  0  0  0  0  0  0
   -2.6260   15.8180   -3.7550 C   0  0  0  0  0  0  0  0  0  0  0  0
   -1.4900   16.7330   -4.2180 C   0  0  0  0  0  0  0  0  0  0  0  0
   -1.9650   17.9900   -4.6680 O   0  0  0  0  0  0  0  0  0  0  0  0
   -1.7260   18.2190   -6.2100 P   0  0  1  0  0  0  0  0  0  0  0  0
   -1.1740   19.6400   -6.5710 O   0  0  0  0  0  0  0  0  0  0  0  0
   -0.3720   17.3840   -6.3350 O   0  0  0  0  0  0  0  0  0  0  0  0
   -2.7580   17.6450   -7.0770 O   0  0  0  0  0  0  0  0  0  0  0  0
   -0.4000   20.0170   -7.8880 P   0  0  0  0  0  0  0  0  0  0  0  0
   -1.5130   20.6340   -8.8420 O   0  0  0  0  0  0  0  0  0  0  0  0
    0.7500   20.9560   -7.7450 O   0  0  0  0  0  0  0  0  0  0  0  0
   -0.0050   18.6750   -8.6650 O   0  0  0  0  0  0  0  0  0  0  0  0
  2  1  1  1
  2  3  1  0
  2  4  1  0
  3  5  1  0
  3  6  1  6
  4  7  1  0
  5  8  1  6
  6  9  1  0
  8  9  1  0
  5 10  1  0
  7 10  1  0
  9 11  1  6
 11 12  1  0
 12 13  1  0
 13 14  1  0
 14 15  1  0
 14 16  1  6
 14 17  2  0
 15 18  1  0
 18 19  1  0
 18 20  2  0
 18 21  1  0
M  END
>  <%Rank>  (318) 
24.198473

>  <N_hits>  (318) 
2

>  <submitter_name>  (318) 
nan

>  <original SMILES>  (318) 
nan

>  <∆G_unbound>  (318) 
1.894859

>  <∆G_bound>  (318) 
-8.799265

>  <regarded>  (318) 
5CB5_0_F_δ,mArh-5cms_F_6_F_β

>  <ref_pdb>  (318) 
nan

>  <smiles>  (318) 
NC1NCNC2NC(CCOP(=O)(O)OP(=O)(O)O)NC12

>  <submitter_email>  (318) 
nan

>  <disregarded>  (318) 


>  <LE>  (318) 
-0.509244

>  <submitter_institution>  (318) 
nan

>  <ref_mols>  (318) 
5CB5_0_F,mArh-5cms_F_6_F

>  <N_constrained_atoms>  (318) 
19.0

>  <ref_url>  (318) 
nan

>  <method>  (318) 
nan

>  <comRMSD>  (318) 
0.65206

>  <N_unconstrained_atoms>  (318) 
2.0

>  <∆∆G>  (318) 
-10.694124

>  <runtime>  (318) 
31.168585

>  <generation_date>  (318) 
nan

$$$$
mArh-x0574_0_A_α-5CB5_0_Q_α
     RDKit          3D

 27 29  0  0  0  0  0  0  0  0999 V2000
    0.1550   14.0810    2.0940 N   0  0  0  0  0  0  0  0  0  0  0  0
   -0.8700   14.3400    1.3100 C   0  0  0  0  0  0  0  0  0  0  0  0
   -2.0310   14.3550    1.8210 N   0  0  0  0  0  0  0  0  0  0  0  0
   -0.7660   14.6610   -0.3720 S   0  0  0  0  0  0  0  0  0  0  0  0
   -2.9650   14.6100    0.8640 C   0  0  0  0  0  0  0  0  0  0  0  0
   -2.4990   14.8170   -0.4500 C   0  0  0  0  0  0  0  0  0  0  0  0
   -4.3130   14.6600    1.1650 C   0  0  0  0  0  0  0  0  0  0  0  0
   -3.4040   15.0910   -1.5400 C   0  0  0  0  0  0  0  0  0  0  0  0
   -3.0860   15.3460   -3.0610 C   0  0  0  0  0  0  0  0  0  0  0  0
   -5.2340   14.9120    0.1740 C   0  0  0  0  0  0  0  0  0  0  0  0
   -4.7890   15.1240   -1.1460 C   0  0  0  0  0  0  0  0  0  0  0  0
   -6.5260   14.9150    0.6430 O   0  0  0  0  0  0  0  0  0  0  0  0
   -1.5980   15.3250   -3.5670 C   0  0  0  0  0  0  0  0  0  0  0  0
   -6.7250   14.5440    2.0130 C   0  0  0  0  0  0  0  0  0  0  0  0
   -1.1500   16.3100   -4.7440 C   0  0  0  0  0  0  0  0  0  0  0  0
   -1.9970   17.5940   -5.0140 C   0  0  0  0  0  0  0  0  0  0  0  0
   -1.6640   18.6760   -6.0980 C   0  0  0  0  0  0  0  0  0  0  0  0
   -2.8490   19.4900   -6.7670 C   0  0  0  0  0  0  0  0  0  0  0  0
   -3.5110   20.6500   -6.1450 O   0  0  0  0  0  0  0  0  0  0  0  0
   -4.4610   21.3770   -7.0030 C   0  0  2  0  0  0  0  0  0  0  0  0
   -4.2350   21.0370   -8.3710 O   0  0  0  0  0  0  0  0  0  0  0  0
   -4.3100   22.9360   -6.9760 C   0  0  2  0  0  0  0  0  0  0  0  0
   -5.5770   23.6380   -6.8560 O   0  0  0  0  0  0  0  0  0  0  0  0
   -3.2480   21.9590   -8.8540 C   0  0  1  0  0  0  0  0  0  0  0  0
   -3.7550   23.3010   -8.3720 C   0  0  1  0  0  0  0  0  0  0  0  0
   -1.8680   21.5810   -8.3420 C   0  0  0  0  0  0  0  0  0  0  0  0
   -4.7220   23.9010   -9.2440 O   0  0  0  0  0  0  0  0  0  0  0  0
  1  2  1  0
  2  3  2  0
  2  4  1  0
  3  5  1  0
  4  6  1  0
  5  6  2  0
  5  7  1  0
  6  8  1  0
  8  9  1  0
  7 10  2  0
  8 11  2  0
 10 11  1  0
 10 12  1  0
  9 13  1  0
 12 14  1  0
 13 15  1  0
 15 16  1  0
 16 17  1  0
 17 18  1  0
 18 19  1  0
 20 19  1  1
 20 21  1  0
 20 22  1  0
 22 23  1  6
 21 24  1  0
 22 25  1  0
 24 25  1  0
 24 26  1  1
 25 27  1  6
M  END
>  <%Rank>  (319) 
24.274809

>  <N_hits>  (319) 
2

>  <submitter_name>  (319) 
nan

>  <original SMILES>  (319) 
nan

>  <∆G_unbound>  (319) 
-0.010154

>  <∆G_bound>  (319) 
-15.529099

>  <regarded>  (319) 
mArh-x0574_0_A_α,5CB5_0_Q_α

>  <ref_pdb>  (319) 
nan

>  <smiles>  (319) 
COc1cc(CCCCCCOC2OC(C)C(O)C2O)c2sc(N)nc2c1

>  <submitter_email>  (319) 
nan

>  <disregarded>  (319) 


>  <LE>  (319) 
-0.574776

>  <submitter_institution>  (319) 
nan

>  <ref_mols>  (319) 
mArh-x0574_0_A,5CB5_0_Q

>  <N_constrained_atoms>  (319) 
21.0

>  <ref_url>  (319) 
nan

>  <method>  (319) 
nan

>  <comRMSD>  (319) 
0.63248

>  <N_unconstrained_atoms>  (319) 
6.0

>  <∆∆G>  (319) 
-15.518945

>  <runtime>  (319) 
47.289953

>  <generation_date>  (319) 
nan

$$$$
mArh-5cb5_L_0_L_β-5CB5_0_O_α
     RDKit          3D

 17 17  0  0  0  0  0  0  0  0999 V2000
   -1.6950   21.4620   -8.7290 O   0  0  0  0  0  0  0  0  0  0  0  0
   -0.7340   20.4150   -7.9120 P   0  0  2  0  0  0  0  0  0  0  0  0
   -1.4230   19.9430   -6.5580 O   0  0  0  0  0  0  0  0  0  0  0  0
   -3.1080   21.7940   -8.6450 C   0  0  1  0  0  0  0  0  0  0  0  0
    0.6440   20.9600   -7.6780 O   0  0  0  0  0  0  0  0  0  0  0  0
   -0.6070   19.0410   -8.7370 O   0  0  0  0  0  0  0  0  0  0  0  0
   -3.7800   21.1110   -7.6060 O   0  0  0  0  0  0  0  0  0  0  0  0
   -3.4900   23.3100   -8.4230 C   0  0  1  0  0  0  0  0  0  0  0  0
   -1.6030   18.3960   -6.2180 P   0  0  0  0  0  0  0  0  0  0  0  0
   -4.2160   23.9040   -9.5220 O   0  0  0  0  0  0  0  0  0  0  0  0
   -4.9470   21.8850   -7.3590 C   0  0  2  0  0  0  0  0  0  0  0  0
   -4.3770   23.2620   -7.1690 C   0  0  2  0  0  0  0  0  0  0  0  0
   -0.1770   17.7100   -6.3620 O   0  0  0  0  0  0  0  0  0  0  0  0
   -2.6790   17.6760   -6.9090 O   0  0  0  0  0  0  0  0  0  0  0  0
   -1.7470   18.3780   -4.6340 O   0  0  0  0  0  0  0  0  0  0  0  0
   -5.5880   21.4750   -6.1600 O   0  0  0  0  0  0  0  0  0  0  0  0
   -5.4770   24.1940   -7.1520 O   0  0  0  0  0  0  0  0  0  0  0  0
  1  2  1  0
  2  3  1  0
  4  1  1  1
  2  5  2  0
  2  6  1  6
  4  7  1  0
  4  8  1  0
  3  9  1  0
  8 10  1  6
  7 11  1  0
  8 12  1  0
 11 12  1  0
  9 13  1  0
  9 14  2  0
  9 15  1  0
 11 16  1  1
 12 17  1  6
M  END
>  <%Rank>  (320) 
24.351145

>  <N_hits>  (320) 
2

>  <submitter_name>  (320) 
nan

>  <original SMILES>  (320) 
nan

>  <∆G_unbound>  (320) 
1.974322

>  <∆G_bound>  (320) 
-10.503755

>  <regarded>  (320) 
mArh-5cb5_L_0_L_β,5CB5_0_O_α

>  <ref_pdb>  (320) 
nan

>  <smiles>  (320) 
O=P(O)(O)OP(=O)(O)OC1OC(O)C(O)C1O

>  <submitter_email>  (320) 
nan

>  <disregarded>  (320) 


>  <LE>  (320) 
-0.734005

>  <submitter_institution>  (320) 
nan

>  <ref_mols>  (320) 
mArh-5cb5_L_0_L,5CB5_0_O

>  <N_constrained_atoms>  (320) 
17.0

>  <ref_url>  (320) 
nan

>  <method>  (320) 
nan

>  <comRMSD>  (320) 
0.775855

>  <N_unconstrained_atoms>  (320) 
0.0

>  <∆∆G>  (320) 
-12.478077

>  <runtime>  (320) 
32.56927

>  <generation_date>  (320) 
nan

$$$$
mArh-5cms_K_10_K_β-mArh-EU0815_0_A_β
     RDKit          3D

 20 20  0  0  0  0  0  0  0  0999 V2000
   -1.6340   20.3430   -8.2880 O   0  0  0  0  0  0  0  0  0  0  0  0
   -0.2000   19.8290   -7.8570 P   0  0  0  0  0  0  0  0  0  0  0  0
   -0.3480   19.0360   -6.5270 O   0  0  0  0  0  0  0  0  0  0  0  0
    0.8190   20.9050   -7.8350 O   0  0  0  0  0  0  0  0  0  0  0  0
    0.1020   18.6900   -8.9280 O   0  0  0  0  0  0  0  0  0  0  0  0
   -1.5460   18.1230   -6.1010 P   0  0  0  0  0  0  0  0  0  0  0  0
   -0.7910   16.8620   -5.4740 O   0  0  0  0  0  0  0  0  0  0  0  0
   -2.5570   17.7780   -7.1090 O   0  0  0  0  0  0  0  0  0  0  0  0
   -2.1540   18.9660   -4.9070 O   0  0  0  0  0  0  0  0  0  0  0  0
   -0.9400   16.5320   -4.1180 C   0  0  0  0  0  0  0  0  0  0  0  0
   -2.2950   15.8730   -3.9880 C   0  0  0  0  0  0  0  0  0  0  0  0
   -2.6460   15.5010   -2.5560 C   0  0  0  0  0  0  0  0  0  0  0  0
   -4.0740   14.9840   -2.4850 C   0  0  0  0  0  0  0  0  0  0  0  0
   -4.6460   14.9370   -1.1130 C   0  0  0  0  0  0  0  0  0  0  0  0
   -3.8140   14.9080    0.0060 C   0  0  0  0  0  0  0  0  0  0  0  0
   -6.0280   14.9150   -0.9340 C   0  0  0  0  0  0  0  0  0  0  0  0
   -6.8390   14.9520   -1.9990 F   0  0  0  0  0  0  0  0  0  0  0  0
   -4.3670   14.8560    1.2730 C   0  0  0  0  0  0  0  0  0  0  0  0
   -6.5900   14.8550    0.3260 C   0  0  0  0  0  0  0  0  0  0  0  0
   -5.7540   14.8260    1.4380 C   0  0  0  0  0  0  0  0  0  0  0  0
  1  2  1  0
  2  3  1  0
  2  4  2  0
  2  5  1  0
  3  6  1  0
  6  7  1  0
  6  8  2  0
  6  9  1  0
  7 10  1  0
 10 11  1  0
 11 12  1  0
 12 13  1  0
 13 14  1  0
 14 15  2  0
 14 16  1  0
 16 17  1  0
 15 18  1  0
 16 19  2  0
 18 20  2  0
 19 20  1  0
M  END
>  <%Rank>  (321) 
24.427481

>  <N_hits>  (321) 
2

>  <submitter_name>  (321) 
nan

>  <original SMILES>  (321) 
nan

>  <∆G_unbound>  (321) 
0.339051

>  <∆G_bound>  (321) 
-10.401353

>  <regarded>  (321) 
mArh-5cms_K_10_K_β,mArh-EU0815_0_A_β

>  <ref_pdb>  (321) 
nan

>  <smiles>  (321) 
O=P(O)(O)OP(=O)(O)OCCCCc1ccccc1F

>  <submitter_email>  (321) 
nan

>  <disregarded>  (321) 


>  <LE>  (321) 
-0.53702

>  <submitter_institution>  (321) 
nan

>  <ref_mols>  (321) 
mArh-5cms_K_10_K,mArh-EU0815_0_A

>  <N_constrained_atoms>  (321) 
17.0

>  <ref_url>  (321) 
nan

>  <method>  (321) 
nan

>  <comRMSD>  (321) 
0.589264

>  <N_unconstrained_atoms>  (321) 
3.0

>  <∆∆G>  (321) 
-10.740404

>  <runtime>  (321) 
33.655272

>  <generation_date>  (321) 
nan

$$$$
5CB5_0_I_α-mArh-x0592_0_A_α
     RDKit          3D

 26 27  0  0  0  0  0  0  0  0999 V2000
   -2.0260   21.7470   -8.1990 C   0  0  0  0  0  0  0  0  0  0  0  0
   -3.4010   21.9550   -8.8290 C   0  0  1  0  0  0  0  0  0  0  0  0
   -4.3150   20.9180   -8.4800 O   0  0  0  0  0  0  0  0  0  0  0  0
   -4.0440   23.2530   -8.3830 C   0  0  1  0  0  0  0  0  0  0  0  0
   -4.5940   23.9860   -9.4730 O   0  0  0  0  0  0  0  0  0  0  0  0
   -4.9240   21.2760   -7.2630 C   0  0  2  0  0  0  0  0  0  0  0  0
   -5.1630   22.7930   -7.4480 C   0  0  1  0  0  0  0  0  0  0  0  0
   -4.0060   20.8550   -6.2320 O   0  0  0  0  0  0  0  0  0  0  0  0
   -5.2510   23.5990   -6.2860 O   0  0  0  0  0  0  0  0  0  0  0  0
   -3.1390   19.8010   -6.7150 C   0  0  0  0  0  0  0  0  0  0  0  0
   -2.1260   19.2370   -5.6960 C   0  0  0  0  0  0  0  0  0  0  0  0
   -1.9910   17.6760   -5.7000 C   0  0  0  0  0  0  0  0  0  0  0  0
   -1.4840   17.0310   -4.3860 C   0  0  0  0  0  0  0  0  0  0  0  0
   -1.9170   15.5680   -4.1090 C   0  0  0  0  0  0  0  0  0  0  0  0
   -3.0070   15.3720   -3.0110 C   0  0  0  0  0  0  0  0  0  0  0  0
   -2.4840   15.2660   -1.6280 N   0  0  0  0  0  0  0  0  0  0  0  0
   -3.2240   15.1080   -0.5590 C   0  0  0  0  0  0  0  0  0  0  0  0
   -2.6310   15.0260    0.6810 N   0  0  0  0  0  0  0  0  0  0  0  0
   -4.6770   14.9980   -0.4690 C   0  0  0  0  0  0  0  0  0  0  0  0
   -5.6110   15.2040   -1.5230 C   0  0  0  0  0  0  0  0  0  0  0  0
   -5.5010   14.6830    0.6030 C   0  0  0  0  0  0  0  0  0  0  0  0
   -6.8810   15.0360   -1.1540 N   0  0  0  0  0  0  0  0  0  0  0  0
   -6.7970   14.7190    0.1470 N   0  0  0  0  0  0  0  0  0  0  0  0
   -8.0140   14.4650    0.8940 C   0  0  0  0  0  0  0  0  0  0  0  0
   -7.7600   14.0200    2.3320 C   0  0  0  0  0  0  0  0  0  0  0  0
   -7.0620   15.0370    3.0610 O   0  0  0  0  0  0  0  0  0  0  0  0
  2  1  1  1
  2  3  1  0
  2  4  1  0
  4  5  1  6
  3  6  1  0
  4  7  1  0
  6  7  1  0
  6  8  1  1
  7  9  1  1
  8 10  1  0
 10 11  1  0
 11 12  1  0
 12 13  1  0
 13 14  1  0
 14 15  1  0
 15 16  1  0
 16 17  2  3
 17 18  1  0
 17 19  1  0
 19 20  1  0
 19 21  2  0
 20 22  2  0
 21 23  1  0
 22 23  1  0
 23 24  1  0
 24 25  1  0
 25 26  1  0
M  END
>  <%Rank>  (322) 
24.503817

>  <N_hits>  (322) 
2

>  <submitter_name>  (322) 
nan

>  <original SMILES>  (322) 
nan

>  <∆G_unbound>  (322) 
1.432507

>  <∆G_bound>  (322) 
-10.917314

>  <regarded>  (322) 
5CB5_0_I_α,mArh-x0592_0_A_α

>  <ref_pdb>  (322) 
nan

>  <smiles>  (322) 
CC1OC(OCCCCCCN=C(N)c2cnn(CCO)c2)C(O)C1O

>  <submitter_email>  (322) 
nan

>  <disregarded>  (322) 


>  <LE>  (322) 
-0.474993

>  <submitter_institution>  (322) 
nan

>  <ref_mols>  (322) 
5CB5_0_I,mArh-x0592_0_A

>  <N_constrained_atoms>  (322) 
20.0

>  <ref_url>  (322) 
nan

>  <method>  (322) 
nan

>  <comRMSD>  (322) 
0.560103

>  <N_unconstrained_atoms>  (322) 
6.0

>  <∆∆G>  (322) 
-12.349821

>  <runtime>  (322) 
52.195554

>  <generation_date>  (322) 
nan

$$$$
mArh-5cb5_F_1_F_γ-mArh-5cb5_J_2_J_β
     RDKit          3D

 16 16  0  0  0  0  0  0  0  0999 V2000
   -1.6690   12.9890   -4.1900 O   0  0  0  0  0  0  0  0  0  0  0  0
   -0.4130   13.6060   -3.9810 C   0  0  2  0  0  0  0  0  0  0  0  0
   -0.3910   14.5690   -2.7870 C   0  0  0  0  0  0  0  0  0  0  0  0
   -0.0040   14.4830   -5.1500 C   0  0  2  0  0  0  0  0  0  0  0  0
    1.4200   14.3770   -5.2290 O   0  0  0  0  0  0  0  0  0  0  0  0
   -0.0310   15.8680   -3.2930 O   0  0  0  0  0  0  0  0  0  0  0  0
   -0.4990   15.8460   -4.6450 C   0  0  1  0  0  0  0  0  0  0  0  0
   -0.0330   17.1100   -5.3500 C   0  0  0  0  0  0  0  0  0  0  0  0
   -1.3530   18.2030   -5.9450 P   0  0  1  0  0  0  0  0  0  0  0  0
   -0.6480   19.4570   -6.5570 O   0  0  0  0  0  0  0  0  0  0  0  0
   -2.3900   17.5520   -6.8120 O   0  0  0  0  0  0  0  0  0  0  0  0
   -2.0020   18.9550   -4.6950 O   0  0  0  0  0  0  0  0  0  0  0  0
   -0.1790   19.9280   -7.9490 P   0  0  0  0  0  0  0  0  0  0  0  0
   -1.5120   20.4490   -8.6360 O   0  0  0  0  0  0  0  0  0  0  0  0
    0.9090   20.9220   -7.9660 O   0  0  0  0  0  0  0  0  0  0  0  0
    0.0730   18.5900   -8.7960 O   0  0  0  0  0  0  0  0  0  0  0  0
  2  1  1  6
  2  3  1  0
  2  4  1  0
  4  5  1  1
  3  6  1  0
  4  7  1  0
  6  7  1  0
  7  8  1  6
  8  9  1  0
  9 10  1  0
  9 11  2  0
  9 12  1  1
 10 13  1  0
 13 14  1  0
 13 15  2  0
 13 16  1  0
M  END
>  <%Rank>  (323) 
24.580153

>  <N_hits>  (323) 
2

>  <submitter_name>  (323) 
nan

>  <original SMILES>  (323) 
nan

>  <∆G_unbound>  (323) 
1.057928

>  <∆G_bound>  (323) 
-9.051474

>  <regarded>  (323) 
mArh-5cb5_F_1_F_γ,mArh-5cb5_J_2_J_β

>  <ref_pdb>  (323) 
nan

>  <smiles>  (323) 
O=P(O)(O)OP(=O)(O)CC1OCC(O)C1O

>  <submitter_email>  (323) 
nan

>  <disregarded>  (323) 


>  <LE>  (323) 
-0.631838

>  <submitter_institution>  (323) 
nan

>  <ref_mols>  (323) 
mArh-5cb5_F_1_F,mArh-5cb5_J_2_J

>  <N_constrained_atoms>  (323) 
16.0

>  <ref_url>  (323) 
nan

>  <method>  (323) 
nan

>  <comRMSD>  (323) 
0.705409

>  <N_unconstrained_atoms>  (323) 
0.0

>  <∆∆G>  (323) 
-10.109402

>  <runtime>  (323) 
35.698286

>  <generation_date>  (323) 
nan

$$$$
5CMS_0_M_γ-mArh-mac-194_0_A_α
     RDKit          3D

 21 23  0  0  0  0  0  0  0  0999 V2000
   -1.3940   12.3660   -4.5270 O   0  0  0  0  0  0  0  0  0  0  0  0
   -1.3400   13.7530   -4.8120 C   0  0  1  0  0  0  0  0  0  0  0  0
   -1.6160   14.6780   -3.6120 C   0  0  1  0  0  0  0  0  0  0  0  0
    0.0280   14.2120   -5.2870 C   0  0  2  0  0  0  0  0  0  0  0  0
    1.0810   13.5430   -4.6060 O   0  0  0  0  0  0  0  0  0  0  0  0
   -1.7360   13.9710   -2.2850 C   0  0  0  0  0  0  0  0  0  0  0  0
   -0.5480   15.6440   -3.5810 O   0  0  0  0  0  0  0  0  0  0  0  0
   -0.1380   15.6840   -4.9420 C   0  0  1  0  0  0  0  0  0  0  0  0
    1.0650   16.5510   -5.1220 C   0  0  0  0  0  0  0  0  0  0  0  0
   -2.8700   14.2290   -1.3300 C   0  0  0  0  0  0  0  0  0  0  0  0
   -2.4490   14.3390   -0.0190 C   0  0  0  0  0  0  0  0  0  0  0  0
   -4.2610   14.3420   -1.6390 C   0  0  0  0  0  0  0  0  0  0  0  0
   -5.1680   14.5390   -0.5670 C   0  0  0  0  0  0  0  0  0  0  0  0
   -3.3410   14.5360    1.0030 C   0  0  0  0  0  0  0  0  0  0  0  0
   -6.6500   14.6510   -0.7010 C   0  0  0  0  0  0  0  0  0  0  0  0
   -4.6910   14.6260    0.7380 C   0  0  0  0  0  0  0  0  0  0  0  0
   -7.2170   14.8640   -1.7640 O   0  0  0  0  0  0  0  0  0  0  0  0
   -7.3560   14.4850    0.4800 N   0  0  0  0  0  0  0  0  0  0  0  0
   -5.5080   14.7840    1.8390 N   0  0  0  0  0  0  0  0  0  0  0  0
   -6.7700   14.6880    1.7000 C   0  0  0  0  0  0  0  0  0  0  0  0
   -7.5240   14.7780    2.8170 N   0  0  0  0  0  0  0  0  0  0  0  0
  2  1  1  1
  2  3  1  0
  2  4  1  0
  4  5  1  1
  3  6  1  1
  3  7  1  0
  4  8  1  0
  7  8  1  0
  8  9  1  1
  6 10  1  0
 10 11  2  0
 10 12  1  0
 12 13  2  0
 11 14  1  0
 13 15  1  0
 13 16  1  0
 14 16  2  0
 15 17  2  0
 15 18  1  0
 16 19  1  0
 18 20  1  0
 19 20  2  0
 20 21  1  0
M  END
>  <%Rank>  (324) 
24.656489

>  <N_hits>  (324) 
2

>  <submitter_name>  (324) 
nan

>  <original SMILES>  (324) 
nan

>  <∆G_unbound>  (324) 
0.311471

>  <∆G_bound>  (324) 
-5.105178

>  <regarded>  (324) 
5CMS_0_M_γ,mArh-mac-194_0_A_α

>  <ref_pdb>  (324) 
nan

>  <smiles>  (324) 
CC1OC(Cc2ccc3nc(N)[nH]c(=O)c3c2)C(O)C1O

>  <submitter_email>  (324) 
nan

>  <disregarded>  (324) 


>  <LE>  (324) 
-0.257936

>  <submitter_institution>  (324) 
nan

>  <ref_mols>  (324) 
5CMS_0_M,mArh-mac-194_0_A

>  <N_constrained_atoms>  (324) 
20.0

>  <ref_url>  (324) 
nan

>  <method>  (324) 
nan

>  <comRMSD>  (324) 
0.577017

>  <N_unconstrained_atoms>  (324) 
1.0

>  <∆∆G>  (324) 
-5.41665

>  <runtime>  (324) 
45.809944

>  <generation_date>  (324) 
nan

$$$$
mArh-5cms_M_12_M_γ-3EW5_0_A_α
     RDKit          3D

 20 20  0  0  0  0  0  0  0  0999 V2000
   -1.4140   12.9550   -4.7460 O   0  0  0  0  0  0  0  0  0  0  0  0
   -0.5970   13.5440   -3.8210 C   0  0  2  0  0  0  0  0  0  0  0  0
   -1.1420   14.8240   -3.2490 C   0  0  0  0  0  0  0  0  0  0  0  0
    0.7590   14.0030   -4.4110 C   0  0  1  0  0  0  0  0  0  0  0  0
    0.8150   13.5870   -5.7080 O   0  0  0  0  0  0  0  0  0  0  0  0
   -0.0950   15.6720   -3.1000 O   0  0  0  0  0  0  0  0  0  0  0  0
    0.7650   15.4750   -4.1780 C   0  0  2  0  0  0  0  0  0  0  0  0
    0.2580   16.3450   -5.2970 C   0  0  0  0  0  0  0  0  0  0  0  0
    0.4720   17.7720   -4.8910 C   0  0  0  0  0  0  0  0  0  0  0  0
    0.8540   18.5860   -6.1560 C   0  0  0  0  0  0  0  0  0  0  0  0
   -0.3610   19.2070   -6.3660 O   0  0  0  0  0  0  0  0  0  0  0  0
   -0.7080   19.8360   -7.7800 P   0  0  0  0  0  0  0  0  0  0  0  0
   -1.5800   21.0060   -7.1880 O   0  0  0  0  0  0  0  0  0  0  0  0
    0.3840   21.2060   -8.0780 O   0  0  0  0  0  0  0  0  0  0  0  0
    0.2580   19.0310   -8.6400 O   0  0  0  0  0  0  0  0  0  0  0  0
   -2.1980   21.9290   -7.9580 C   0  0  0  0  0  0  0  0  0  0  0  0
   -3.5320   22.3390   -7.2770 C   0  0  2  0  0  0  0  0  0  0  0  0
   -4.7290   22.2690   -8.1300 C   0  0  0  0  0  0  0  0  0  0  0  0
   -3.2820   23.6210   -6.7970 O   0  0  0  0  0  0  0  0  0  0  0  0
   -5.9120   21.9620   -7.4670 O   0  0  0  0  0  0  0  0  0  0  0  0
  2  1  1  6
  2  3  1  0
  2  4  1  0
  4  5  1  6
  3  6  1  0
  4  7  1  0
  6  7  1  0
  7  8  1  6
  8  9  1  0
  9 10  1  0
 10 11  1  0
 11 12  1  0
 12 13  1  0
 12 14  1  0
 12 15  1  0
 13 16  1  0
 16 17  1  0
 17 18  1  0
 17 19  1  6
 18 20  1  0
M  CHG  1  15  -1
M  END
>  <%Rank>  (325) 
24.732824

>  <N_hits>  (325) 
2

>  <submitter_name>  (325) 
nan

>  <original SMILES>  (325) 
nan

>  <∆G_unbound>  (325) 
0.343081

>  <∆G_bound>  (325) 
-10.192012

>  <regarded>  (325) 
mArh-5cms_M_12_M_γ,3EW5_0_A_α

>  <ref_pdb>  (325) 
nan

>  <smiles>  (325) 
[O-][PH](O)(OCCCC1OCC(O)C1O)OC[C@@H](O)CO

>  <submitter_email>  (325) 
nan

>  <disregarded>  (325) 


>  <LE>  (325) 
-0.526755

>  <submitter_institution>  (325) 
nan

>  <ref_mols>  (325) 
mArh-5cms_M_12_M,3EW5_0_A

>  <N_constrained_atoms>  (325) 
18.0

>  <ref_url>  (325) 
nan

>  <method>  (325) 
nan

>  <comRMSD>  (325) 
0.641898

>  <N_unconstrained_atoms>  (325) 
2.0

>  <∆∆G>  (325) 
-10.535093

>  <runtime>  (325) 
40.942013

>  <generation_date>  (325) 
nan

$$$$
mArh-6mea_A_0_A_α-5CB5_0_C_β
     RDKit          3D

 17 17  0  0  0  0  0  0  0  0999 V2000
   -2.2020   21.2350   -7.2970 C   0  0  0  0  0  0  0  0  0  0  0  0
   -0.7840   20.4250   -7.9800 P   0  0  0  0  0  0  0  0  0  0  0  0
   -0.4000   19.5470   -6.7780 O   0  0  0  0  0  0  0  0  0  0  0  0
   -3.2740   21.8610   -8.2120 C   0  0  1  0  0  0  0  0  0  0  0  0
    0.6780   21.1140   -7.8820 O   0  0  0  0  0  0  0  0  0  0  0  0
   -0.8540   18.8930   -8.7130 O   0  0  0  0  0  0  0  0  0  0  0  0
   -4.5340   21.3280   -7.9780 O   0  0  0  0  0  0  0  0  0  0  0  0
   -3.5640   23.3480   -7.9620 C   0  0  1  0  0  0  0  0  0  0  0  0
   -4.4180   23.8440   -8.9430 O   0  0  0  0  0  0  0  0  0  0  0  0
   -1.4330   18.6370   -5.8660 P   0  0  0  0  0  0  0  0  0  0  0  0
   -5.1800   22.0280   -6.9730 C   0  0  2  0  0  0  0  0  0  0  0  0
   -4.3800   23.2450   -6.6760 C   0  0  2  0  0  0  0  0  0  0  0  0
   -5.3570   21.3700   -5.7630 O   0  0  0  0  0  0  0  0  0  0  0  0
   -5.2510   24.3480   -6.5650 O   0  0  0  0  0  0  0  0  0  0  0  0
   -1.2860   16.9690   -5.7500 O   0  0  0  0  0  0  0  0  0  0  0  0
   -2.4100   18.4220   -7.0280 O   0  0  0  0  0  0  0  0  0  0  0  0
   -2.4160   19.3950   -4.8770 O   0  0  0  0  0  0  0  0  0  0  0  0
  1  2  1  0
  2  3  1  0
  4  1  1  1
  2  5  1  0
  2  6  1  0
  4  7  1  0
  4  8  1  0
  8  9  1  6
  3 10  1  0
  7 11  1  0
  8 12  1  0
 11 12  1  0
 11 13  1  1
 12 14  1  6
 10 15  1  0
 10 16  1  0
 10 17  1  0
M  CHG  2   5  -1  16  -1
M  END
>  <%Rank>  (326) 
24.80916

>  <N_hits>  (326) 
2

>  <submitter_name>  (326) 
nan

>  <original SMILES>  (326) 
nan

>  <∆G_unbound>  (326) 
1.818629

>  <∆G_bound>  (326) 
-9.017001

>  <regarded>  (326) 
mArh-6mea_A_0_A_α,5CB5_0_C_β

>  <ref_pdb>  (326) 
nan

>  <smiles>  (326) 
[O-][PH](O)(O)O[PH]([O-])(O)CC1OC(O)C(O)C1O

>  <submitter_email>  (326) 
nan

>  <disregarded>  (326) 


>  <LE>  (326) 
-0.63739

>  <submitter_institution>  (326) 
nan

>  <ref_mols>  (326) 
mArh-6mea_A_0_A,5CB5_0_C

>  <N_constrained_atoms>  (326) 
17.0

>  <ref_url>  (326) 
nan

>  <method>  (326) 
nan

>  <comRMSD>  (326) 
0.73144

>  <N_unconstrained_atoms>  (326) 
0.0

>  <∆∆G>  (326) 
-10.835629

>  <runtime>  (326) 
25.54234

>  <generation_date>  (326) 
nan

$$$$
MAC-309_0_A_α-mArh-x0905_1_B_α
     RDKit          3D

 27 29  0  0  0  0  0  0  0  0999 V2000
   -1.6010   27.0330   14.3650 C   0  0  0  0  0  0  0  0  0  0  0  0
   -0.2530   26.9430   15.0210 C   0  0  0  0  0  0  0  0  0  0  0  0
    0.5720   25.7680   14.7160 C   0  0  0  0  0  0  0  0  0  0  0  0
    0.2200   27.8870   15.8690 C   0  0  0  0  0  0  0  0  0  0  0  0
    1.5540   27.6650   16.5190 C   0  0  1  0  0  0  0  0  0  0  0  0
    1.8870   25.7280   15.0290 C   0  0  0  0  0  0  0  0  0  0  0  0
    2.4700   26.8430   15.6980 C   0  0  0  0  0  0  0  0  0  0  0  0
    2.3630   28.7830   17.0390 N   0  0  0  0  0  0  0  0  0  0  0  0
    3.7250   27.2890   15.7390 C   0  0  0  0  0  0  0  0  0  0  0  0
    3.5700   28.4620   16.6270 C   0  0  0  0  0  0  0  0  0  0  0  0
    4.7970   29.2620   17.0410 C   0  0  0  0  0  0  0  0  0  0  0  0
    4.6910   30.3190   17.6420 O   0  0  0  0  0  0  0  0  0  0  0  0
    5.9340   28.6270   16.6260 O   0  0  0  0  0  0  0  0  0  0  0  0
    6.9530   28.2720   17.6040 C   0  0  0  0  0  0  0  0  0  0  0  0
    8.2530   27.8310   16.8830 C   0  0  0  0  0  0  0  0  0  0  0  0
    9.1230   26.7970   17.6520 C   0  0  0  0  0  0  0  0  0  0  0  0
    9.6540   25.6980   16.7060 C   0  0  0  0  0  0  0  0  0  0  0  0
   10.9880   24.9760   17.0340 C   0  0  0  0  0  0  0  0  0  0  0  0
   11.0820   23.5670   16.3810 C   0  0  0  0  0  0  0  0  0  0  0  0
   12.3790   22.7460   16.3330 C   0  0  0  0  0  0  0  0  0  0  0  0
   12.6540   21.9590   15.0460 C   0  0  0  0  0  0  0  0  0  0  0  0
   12.1520   20.6650   14.7870 C   0  0  0  0  0  0  0  0  0  0  0  0
   13.4590   22.5090   14.0420 C   0  0  0  0  0  0  0  0  0  0  0  0
   12.4120   19.9410   13.6560 N   0  0  0  0  0  0  0  0  0  0  0  0
   13.7370   21.7950   12.8820 C   0  0  0  0  0  0  0  0  0  0  0  0
   13.2030   20.5290   12.7350 C   0  0  0  0  0  0  0  0  0  0  0  0
   13.4860   19.8190   11.5990 O   0  0  0  0  0  0  0  0  0  0  0  0
  1  2  1  0
  2  3  1  0
  2  4  2  0
  5  4  1  6
  3  6  2  0
  5  7  1  0
  6  7  1  0
  5  8  1  0
  7  9  2  0
  8 10  2  0
  9 10  1  0
 10 11  1  0
 11 12  2  0
 11 13  1  0
 13 14  1  0
 14 15  1  0
 15 16  1  0
 16 17  1  0
 17 18  1  0
 18 19  1  0
 19 20  1  0
 20 21  1  0
 21 22  2  0
 21 23  1  0
 22 24  1  0
 23 25  2  0
 24 26  2  0
 25 26  1  0
 26 27  1  0
M  END
>  <%Rank>  (327) 
24.885496

>  <N_hits>  (327) 
2

>  <submitter_name>  (327) 
nan

>  <original SMILES>  (327) 
nan

>  <∆G_unbound>  (327) 
0.10983

>  <∆G_bound>  (327) 
-10.683725

>  <regarded>  (327) 
MAC-309_0_A_α,mArh-x0905_1_B_α

>  <ref_pdb>  (327) 
nan

>  <smiles>  (327) 
CC1=CC2N=C(C(=O)OCCCCCCCc3ccc(O)nc3)C=C2C=C1

>  <submitter_email>  (327) 
nan

>  <disregarded>  (327) 


>  <LE>  (327) 
-0.399761

>  <submitter_institution>  (327) 
nan

>  <ref_mols>  (327) 
MAC-309_0_A,mArh-x0905_1_B

>  <N_constrained_atoms>  (327) 
20.0

>  <ref_url>  (327) 
nan

>  <method>  (327) 
nan

>  <comRMSD>  (327) 
0.49844

>  <N_unconstrained_atoms>  (327) 
7.0

>  <∆∆G>  (327) 
-10.793555

>  <runtime>  (327) 
40.557929

>  <generation_date>  (327) 
nan

$$$$
5CB5_0_B_γ-mArh-EU0860_0_A_α
     RDKit          3D

 18 19  0  0  0  0  0  0  0  0999 V2000
   -1.2670   12.6740   -3.9920 O   0  0  0  0  0  0  0  0  0  0  0  0
   -0.9610   14.0490   -4.2140 C   0  0  1  0  0  0  0  0  0  0  0  0
   -0.8890   14.8390   -2.9250 C   0  0  0  0  0  0  0  0  0  0  0  0
    0.4490   14.2450   -4.7230 C   0  0  1  0  0  0  0  0  0  0  0  0
    0.6670   13.8270   -6.0550 O   0  0  0  0  0  0  0  0  0  0  0  0
    0.0320   15.9250   -3.1410 O   0  0  0  0  0  0  0  0  0  0  0  0
    0.6950   15.7320   -4.4080 C   0  0  2  0  0  0  0  0  0  0  0  0
    0.1750   16.8020   -5.3680 C   0  0  0  0  0  0  0  0  0  0  0  0
    0.8640   12.4060   -6.1730 C   0  0  0  0  0  0  0  0  0  0  0  0
   -0.4670   11.6980   -6.5530 C   0  0  0  0  0  0  0  0  0  0  0  0
   -0.4620   10.8060   -7.7520 N   0  0  0  0  0  0  0  0  0  0  0  0
   -0.5760    9.3950   -7.3780 N   0  0  0  0  0  0  0  0  0  0  0  0
    0.7890   10.8830   -8.5260 C   0  0  0  0  0  0  0  0  0  0  0  0
   -1.9470    9.0260   -7.0280 C   0  0  0  0  0  0  0  0  0  0  0  0
    1.1490    9.4420   -8.8550 C   0  0  1  0  0  0  0  0  0  0  0  0
   -0.1210    8.6920   -8.5800 C   0  0  0  0  0  0  0  0  0  0  0  0
    1.6030    9.3000  -10.2810 C   0  0  0  0  0  0  0  0  0  0  0  0
    2.2260    8.3180  -10.6870 O   0  0  0  0  0  0  0  0  0  0  0  0
  2  1  1  1
  2  3  1  0
  2  4  1  0
  4  5  1  6
  3  6  1  0
  4  7  1  0
  6  7  1  0
  7  8  1  6
  5  9  1  0
  9 10  1  0
 10 11  1  0
 11 12  1  0
 11 13  1  0
 12 14  1  0
 13 15  1  0
 12 16  1  0
 15 16  1  0
 15 17  1  6
 17 18  2  0
M  END
>  <%Rank>  (328) 
24.961832

>  <N_hits>  (328) 
2

>  <submitter_name>  (328) 
nan

>  <original SMILES>  (328) 
nan

>  <∆G_unbound>  (328) 
0.31371

>  <∆G_bound>  (328) 
-4.043623

>  <regarded>  (328) 
5CB5_0_B_γ,mArh-EU0860_0_A_α

>  <ref_pdb>  (328) 
nan

>  <smiles>  (328) 
CC1OCC(O)C1OCCN1CC(C=O)CN1C

>  <submitter_email>  (328) 
nan

>  <disregarded>  (328) 


>  <LE>  (328) 
-0.242074

>  <submitter_institution>  (328) 
nan

>  <ref_mols>  (328) 
5CB5_0_B,mArh-EU0860_0_A

>  <N_constrained_atoms>  (328) 
16.0

>  <ref_url>  (328) 
nan

>  <method>  (328) 
nan

>  <comRMSD>  (328) 
0.44982

>  <N_unconstrained_atoms>  (328) 
2.0

>  <∆∆G>  (328) 
-4.357333

>  <runtime>  (328) 
36.765224

>  <generation_date>  (328) 
nan

$$$$
mArh-5cms_P_15_P_β-mArh-4iqy_B_0_B_α
     RDKit          3D

 17 17  0  0  0  0  0  0  0  0999 V2000
   -1.6240   21.3960   -8.4660 O   0  0  0  0  0  0  0  0  0  0  0  0
   -0.8120   20.1520   -7.7920 P   0  0  2  0  0  0  0  0  0  0  0  0
   -1.6540   19.6720   -6.5380 O   0  0  0  0  0  0  0  0  0  0  0  0
   -3.0580   21.6720   -8.4880 C   0  0  1  0  0  0  0  0  0  0  0  0
    0.6230   20.4240   -7.4570 O   0  0  0  0  0  0  0  0  0  0  0  0
   -0.8570   18.8680   -8.7390 O   0  0  0  0  0  0  0  0  0  0  0  0
   -3.8620   20.9340   -7.5490 O   0  0  0  0  0  0  0  0  0  0  0  0
   -3.4810   23.1670   -8.2100 C   0  0  1  0  0  0  0  0  0  0  0  0
   -1.7840   18.1310   -6.1930 P   0  0  0  0  0  0  0  0  0  0  0  0
   -4.2300   23.7660   -9.2900 O   0  0  0  0  0  0  0  0  0  0  0  0
   -5.0210   21.7610   -7.4540 C   0  0  2  0  0  0  0  0  0  0  0  0
   -4.3810   23.0250   -6.9720 C   0  0  2  0  0  0  0  0  0  0  0  0
   -0.3350   17.5130   -6.3710 O   0  0  0  0  0  0  0  0  0  0  0  0
   -2.8680   17.3750   -6.8580 O   0  0  0  0  0  0  0  0  0  0  0  0
   -1.8680   18.1320   -4.6130 O   0  0  0  0  0  0  0  0  0  0  0  0
   -6.0340   21.3100   -6.5640 O   0  0  0  0  0  0  0  0  0  0  0  0
   -5.3770   24.0540   -6.8090 O   0  0  0  0  0  0  0  0  0  0  0  0
  1  2  1  0
  2  3  1  0
  4  1  1  1
  2  5  2  0
  2  6  1  6
  4  7  1  0
  4  8  1  0
  3  9  1  0
  8 10  1  6
  7 11  1  0
  8 12  1  0
 11 12  1  0
  9 13  1  0
  9 14  2  0
  9 15  1  0
 11 16  1  1
 12 17  1  6
M  END
>  <%Rank>  (329) 
25.038168

>  <N_hits>  (329) 
2

>  <submitter_name>  (329) 
nan

>  <original SMILES>  (329) 
nan

>  <∆G_unbound>  (329) 
1.974322

>  <∆G_bound>  (329) 
-10.576415

>  <regarded>  (329) 
mArh-5cms_P_15_P_β,mArh-4iqy_B_0_B_α

>  <ref_pdb>  (329) 
nan

>  <smiles>  (329) 
O=P(O)(O)OP(=O)(O)OC1OC(O)C(O)C1O

>  <submitter_email>  (329) 
nan

>  <disregarded>  (329) 


>  <LE>  (329) 
-0.738279

>  <submitter_institution>  (329) 
nan

>  <ref_mols>  (329) 
mArh-5cms_P_15_P,mArh-4iqy_B_0_B

>  <N_constrained_atoms>  (329) 
17.0

>  <ref_url>  (329) 
nan

>  <method>  (329) 
nan

>  <comRMSD>  (329) 
0.783922

>  <N_unconstrained_atoms>  (329) 
0.0

>  <∆∆G>  (329) 
-12.550737

>  <runtime>  (329) 
35.055694

>  <generation_date>  (329) 
nan

$$$$
4IQY_0_A_δ-5CMS_0_R_α
     RDKit          3D

 26 28  0  0  0  0  0  0  0  0999 V2000
   -3.9990   14.9700    1.7970 N   0  0  0  0  0  0  0  0  0  0  0  0
   -2.8660   15.4030    0.9970 C   0  0  2  0  0  0  0  0  0  0  0  0
   -2.8210   14.8380   -0.4210 C   0  0  2  0  0  0  0  0  0  0  0  0
   -1.7440   14.9150    1.7620 N   0  0  0  0  0  0  0  0  0  0  0  0
   -1.4330   15.1170   -0.9180 C   0  0  2  0  0  0  0  0  0  0  0  0
   -3.6030   15.4000   -1.5330 N   0  0  0  0  0  0  0  0  0  0  0  0
   -0.4230   15.0070    1.1460 C   0  0  0  0  0  0  0  0  0  0  0  0
   -1.4790   14.5810   -2.2420 N   0  0  0  0  0  0  0  0  0  0  0  0
   -2.8430   14.8510   -2.6840 C   0  0  2  0  0  0  0  0  0  0  0  0
   -0.3980   14.4770   -0.1800 N   0  0  0  0  0  0  0  0  0  0  0  0
   -2.8610   15.7070   -3.9740 C   0  0  0  0  0  0  0  0  0  0  0  0
   -1.6140   16.5610   -4.3110 C   0  0  0  0  0  0  0  0  0  0  0  0
   -1.7970   17.3980   -5.5990 C   0  0  0  0  0  0  0  0  0  0  0  0
   -1.5430   18.9080   -5.4590 C   0  0  0  0  0  0  0  0  0  0  0  0
   -2.5490   19.8470   -6.1480 C   0  0  0  0  0  0  0  0  0  0  0  0
   -2.0540   20.8740   -7.1890 C   0  0  0  0  0  0  0  0  0  0  0  0
   -3.0060   22.0670   -7.4220 C   0  0  0  0  0  0  0  0  0  0  0  0
   -3.8120   21.9210   -8.6130 O   0  0  0  0  0  0  0  0  0  0  0  0
   -3.0960   22.0690   -9.8520 C   0  0  2  0  0  0  0  0  0  0  0  0
   -1.8170   21.4250   -9.7310 O   0  0  0  0  0  0  0  0  0  0  0  0
   -2.7810   23.5550  -10.1130 C   0  0  2  0  0  0  0  0  0  0  0  0
   -3.5730   24.1760  -11.1460 O   0  0  0  0  0  0  0  0  0  0  0  0
   -0.9820   22.5440   -9.4430 C   0  0  2  0  0  0  0  0  0  0  0  0
   -1.3450   23.4290  -10.5960 C   0  0  2  0  0  0  0  0  0  0  0  0
    0.4750   22.2140   -9.2020 C   0  0  0  0  0  0  0  0  0  0  0  0
   -0.6410   24.6580  -10.7030 O   0  0  0  0  0  0  0  0  0  0  0  0
  2  1  1  1
  2  3  1  0
  2  4  1  0
  3  5  1  0
  3  6  1  6
  4  7  1  0
  5  8  1  6
  6  9  1  0
  8  9  1  0
  5 10  1  0
  7 10  1  0
  9 11  1  6
 11 12  1  0
 12 13  1  0
 13 14  1  0
 14 15  1  0
 15 16  1  0
 16 17  1  0
 17 18  1  0
 19 18  1  1
 19 20  1  0
 19 21  1  0
 21 22  1  6
 20 23  1  0
 21 24  1  0
 23 24  1  0
 23 25  1  6
 24 26  1  1
M  END
>  <%Rank>  (330) 
25.114504

>  <N_hits>  (330) 
2

>  <submitter_name>  (330) 
nan

>  <original SMILES>  (330) 
nan

>  <∆G_unbound>  (330) 
0.247134

>  <∆G_bound>  (330) 
-8.172991

>  <regarded>  (330) 
4IQY_0_A_δ,5CMS_0_R_α

>  <ref_pdb>  (330) 
nan

>  <smiles>  (330) 
CC1OC(OCCCCCCCC2NC3NCNC(N)C3N2)C(O)C1O

>  <submitter_email>  (330) 
nan

>  <disregarded>  (330) 


>  <LE>  (330) 
-0.323851

>  <submitter_institution>  (330) 
nan

>  <ref_mols>  (330) 
4IQY_0_A,5CMS_0_R

>  <N_constrained_atoms>  (330) 
19.0

>  <ref_url>  (330) 
nan

>  <method>  (330) 
nan

>  <comRMSD>  (330) 
0.434723

>  <N_unconstrained_atoms>  (330) 
7.0

>  <∆∆G>  (330) 
-8.420125

>  <runtime>  (330) 
61.979939

>  <generation_date>  (330) 
nan

$$$$
mArh-5cms_K_10_K_γ-mArh-5cb5_H_0_H_β
     RDKit          3D

 16 16  0  0  0  0  0  0  0  0999 V2000
   -1.5600   12.6780   -4.2240 O   0  0  0  0  0  0  0  0  0  0  0  0
   -0.3620   13.4010   -3.9980 C   0  0  2  0  0  0  0  0  0  0  0  0
   -0.4590   14.4230   -2.8560 C   0  0  0  0  0  0  0  0  0  0  0  0
    0.0470   14.2410   -5.1950 C   0  0  2  0  0  0  0  0  0  0  0  0
    1.4730   14.1140   -5.2510 O   0  0  0  0  0  0  0  0  0  0  0  0
   -0.0370   15.6850   -3.3800 O   0  0  0  0  0  0  0  0  0  0  0  0
   -0.4630   15.6220   -4.7460 C   0  0  1  0  0  0  0  0  0  0  0  0
   -0.0080   16.8950   -5.4720 C   0  0  0  0  0  0  0  0  0  0  0  0
   -1.3520   18.0140   -5.9620 P   0  0  1  0  0  0  0  0  0  0  0  0
   -0.7700   19.3810   -6.4700 O   0  0  0  0  0  0  0  0  0  0  0  0
   -2.4250   17.4440   -6.8380 O   0  0  0  0  0  0  0  0  0  0  0  0
   -1.9510   18.4920   -4.5780 O   0  0  0  0  0  0  0  0  0  0  0  0
   -0.1380   19.9190   -7.7820 P   0  0  0  0  0  0  0  0  0  0  0  0
   -1.3810   20.6250   -8.4610 O   0  0  0  0  0  0  0  0  0  0  0  0
    1.0560   20.7990   -7.6430 O   0  0  0  0  0  0  0  0  0  0  0  0
    0.0200   18.6700   -8.7800 O   0  0  0  0  0  0  0  0  0  0  0  0
  2  1  1  6
  2  3  1  0
  2  4  1  0
  4  5  1  1
  3  6  1  0
  4  7  1  0
  6  7  1  0
  7  8  1  6
  8  9  1  0
  9 10  1  0
  9 11  2  0
  9 12  1  1
 10 13  1  0
 13 14  1  0
 13 15  2  0
 13 16  1  0
M  END
>  <%Rank>  (331) 
25.19084

>  <N_hits>  (331) 
2

>  <submitter_name>  (331) 
nan

>  <original SMILES>  (331) 
nan

>  <∆G_unbound>  (331) 
1.057928

>  <∆G_bound>  (331) 
-9.466524

>  <regarded>  (331) 
mArh-5cms_K_10_K_γ,mArh-5cb5_H_0_H_β

>  <ref_pdb>  (331) 
nan

>  <smiles>  (331) 
O=P(O)(O)OP(=O)(O)CC1OCC(O)C1O

>  <submitter_email>  (331) 
nan

>  <disregarded>  (331) 


>  <LE>  (331) 
-0.657778

>  <submitter_institution>  (331) 
nan

>  <ref_mols>  (331) 
mArh-5cms_K_10_K,mArh-5cb5_H_0_H

>  <N_constrained_atoms>  (331) 
16.0

>  <ref_url>  (331) 
nan

>  <method>  (331) 
nan

>  <comRMSD>  (331) 
0.721845

>  <N_unconstrained_atoms>  (331) 
0.0

>  <∆∆G>  (331) 
-10.524451

>  <runtime>  (331) 
33.428856

>  <generation_date>  (331) 
nan

$$$$
5L9K_0_B_α-mArh-5cb5_H_0_H_β
     RDKit          3D

 17 17  0  0  0  0  0  0  0  0999 V2000
   -1.9340   21.8150   -7.8500 C   0  0  0  0  0  0  0  0  0  0  0  0
   -0.7580   20.4310   -7.7720 P   0  0  2  0  0  0  0  0  0  0  0  0
   -1.0890   19.7840   -6.3670 O   0  0  0  0  0  0  0  0  0  0  0  0
   -3.3060   21.8710   -8.5580 C   0  0  1  0  0  0  0  0  0  0  0  0
    0.6880   20.8040   -7.8440 O   0  0  0  0  0  0  0  0  0  0  0  0
   -1.0800   19.1850   -8.7420 O   0  0  0  0  0  0  0  0  0  0  0  0
   -4.2830   20.9890   -7.9410 O   0  0  0  0  0  0  0  0  0  0  0  0
   -3.9030   23.2920   -8.4010 C   0  0  1  0  0  0  0  0  0  0  0  0
   -4.7810   23.7180   -9.4460 O   0  0  0  0  0  0  0  0  0  0  0  0
   -1.5370   18.2900   -6.1360 P   0  0  0  0  0  0  0  0  0  0  0  0
   -5.2520   21.7830   -7.2390 C   0  0  1  0  0  0  0  0  0  0  0  0
   -4.6250   23.1670   -7.0640 C   0  0  2  0  0  0  0  0  0  0  0  0
   -6.4730   21.8280   -7.9530 O   0  0  0  0  0  0  0  0  0  0  0  0
   -5.6630   24.1470   -6.8840 O   0  0  0  0  0  0  0  0  0  0  0  0
   -0.1970   17.4410   -6.2160 O   0  0  0  0  0  0  0  0  0  0  0  0
   -2.6300   17.7530   -6.9550 O   0  0  0  0  0  0  0  0  0  0  0  0
   -1.8180   18.2110   -4.5840 O   0  0  0  0  0  0  0  0  0  0  0  0
  1  2  1  0
  2  3  1  0
  4  1  1  1
  2  5  2  0
  2  6  1  6
  4  7  1  0
  4  8  1  0
  8  9  1  6
  3 10  1  0
  7 11  1  0
  8 12  1  0
 11 12  1  0
 11 13  1  6
 12 14  1  6
 10 15  1  0
 10 16  2  0
 10 17  1  0
M  END
>  <%Rank>  (332) 
25.267176

>  <N_hits>  (332) 
2

>  <submitter_name>  (332) 
nan

>  <original SMILES>  (332) 
nan

>  <∆G_unbound>  (332) 
1.703844

>  <∆G_bound>  (332) 
-11.461995

>  <regarded>  (332) 
5L9K_0_B_α,mArh-5cb5_H_0_H_β

>  <ref_pdb>  (332) 
nan

>  <smiles>  (332) 
O=P(O)(O)OP(=O)(O)CC1OC(O)C(O)C1O

>  <submitter_email>  (332) 
nan

>  <disregarded>  (332) 


>  <LE>  (332) 
-0.774461

>  <submitter_institution>  (332) 
nan

>  <ref_mols>  (332) 
5L9K_0_B,mArh-5cb5_H_0_H

>  <N_constrained_atoms>  (332) 
17.0

>  <ref_url>  (332) 
nan

>  <method>  (332) 
nan

>  <comRMSD>  (332) 
0.803438

>  <N_unconstrained_atoms>  (332) 
0.0

>  <∆∆G>  (332) 
-13.165839

>  <runtime>  (332) 
36.757364

>  <generation_date>  (332) 
nan

$$$$
5CB3_0_A_α-mArh-x0421_0_A_α
     RDKit          3D

 25 27  0  0  0  0  0  0  0  0999 V2000
   -2.1450   21.4540   -8.9310 C   0  0  0  0  0  0  0  0  0  0  0  0
   -3.2330   21.9410   -8.0460 C   0  0  2  0  0  0  0  0  0  0  0  0
   -4.4700   21.2690   -8.2290 O   0  0  0  0  0  0  0  0  0  0  0  0
   -3.6980   23.3690   -8.0830 C   0  0  1  0  0  0  0  0  0  0  0  0
   -4.4380   23.7710   -9.2440 O   0  0  0  0  0  0  0  0  0  0  0  0
   -4.9950   21.6760   -6.9800 C   0  0  2  0  0  0  0  0  0  0  0  0
   -4.5820   23.1800   -6.8500 C   0  0  2  0  0  0  0  0  0  0  0  0
   -4.3280   20.8850   -5.9900 O   0  0  0  0  0  0  0  0  0  0  0  0
   -5.6830   24.0800   -6.8240 O   0  0  0  0  0  0  0  0  0  0  0  0
   -3.4150   20.0090   -6.7010 C   0  0  0  0  0  0  0  0  0  0  0  0
   -2.3370   19.2930   -5.8680 C   0  0  0  0  0  0  0  0  0  0  0  0
   -2.2790   17.7550   -6.1170 C   0  0  0  0  0  0  0  0  0  0  0  0
   -1.9660   16.9220   -4.8710 C   0  0  0  0  0  0  0  0  0  0  0  0
   -2.9210   15.7250   -4.5580 C   0  0  0  0  0  0  0  0  0  0  0  0
   -3.4310   15.6070   -3.1630 N   0  0  0  0  0  0  0  0  0  0  0  0
   -2.7420   15.0050   -2.1040 C   0  0  0  0  0  0  0  0  0  0  0  0
   -1.6120   14.5510   -2.2320 O   0  0  0  0  0  0  0  0  0  0  0  0
   -3.4370   14.9470   -0.7790 C   0  0  0  0  0  0  0  0  0  0  0  0
   -2.8010   15.0170    0.4610 C   0  0  0  0  0  0  0  0  0  0  0  0
   -4.8150   14.8070   -0.5700 N   0  0  0  0  0  0  0  0  0  0  0  0
   -3.7860   14.9170    1.4010 N   0  0  0  0  0  0  0  0  0  0  0  0
   -4.9700   14.7910    0.7520 C   0  0  0  0  0  0  0  0  0  0  0  0
   -6.3310   14.6440    1.4970 C   0  0  0  0  0  0  0  0  0  0  0  0
   -7.6390   14.6400    0.7520 C   0  0  0  0  0  0  0  0  0  0  0  0
   -7.1250   13.3720    1.3790 C   0  0  0  0  0  0  0  0  0  0  0  0
  2  1  1  6
  2  3  1  0
  2  4  1  0
  4  5  1  6
  3  6  1  0
  4  7  1  0
  6  7  1  0
  6  8  1  1
  7  9  1  6
  8 10  1  0
 10 11  1  0
 11 12  1  0
 12 13  1  0
 13 14  1  0
 14 15  1  0
 15 16  1  0
 16 17  2  0
 16 18  1  0
 18 19  2  0
 18 20  1  0
 19 21  1  0
 20 22  2  0
 21 22  1  0
 22 23  1  0
 23 24  1  0
 23 25  1  0
 24 25  1  0
M  END
>  <%Rank>  (333) 
25.343511

>  <N_hits>  (333) 
2

>  <submitter_name>  (333) 
nan

>  <original SMILES>  (333) 
nan

>  <∆G_unbound>  (333) 
0.253459

>  <∆G_bound>  (333) 
-8.327796

>  <regarded>  (333) 
5CB3_0_A_α,mArh-x0421_0_A_α

>  <ref_pdb>  (333) 
nan

>  <smiles>  (333) 
CC1OC(OCCCCCNC(=O)c2c[nH]c(C3CC3)n2)C(O)C1O

>  <submitter_email>  (333) 
nan

>  <disregarded>  (333) 


>  <LE>  (333) 
-0.34325

>  <submitter_institution>  (333) 
nan

>  <ref_mols>  (333) 
5CB3_0_A,mArh-x0421_0_A

>  <N_constrained_atoms>  (333) 
20.0

>  <ref_url>  (333) 
nan

>  <method>  (333) 
nan

>  <comRMSD>  (333) 
0.523723

>  <N_unconstrained_atoms>  (333) 
5.0

>  <∆∆G>  (333) 
-8.581255

>  <runtime>  (333) 
55.17802

>  <generation_date>  (333) 
nan

$$$$
mArh-x0895_0_A_α-5CB5_0_P_γ
     RDKit          3D

 17 18  0  0  0  0  0  0  0  0999 V2000
   -1.5270   14.5150    1.8430 O   0  0  0  0  0  0  0  0  0  0  0  0
   -2.5790   14.6550    1.2360 C   0  0  0  0  0  0  0  0  0  0  0  0
   -3.9670   14.8950    1.8180 C   0  0  0  0  0  0  0  0  0  0  0  0
   -2.7520   14.6260   -0.1210 N   0  0  0  0  0  0  0  0  0  0  0  0
   -4.6740   15.3780    0.6670 N   0  0  0  0  0  0  0  0  0  0  0  0
   -3.9860   15.0850   -0.4550 C   0  0  0  0  0  0  0  0  0  0  0  0
   -4.4880   15.2350   -1.6200 N   0  0  0  0  0  0  0  0  0  0  0  0
   -3.7310   14.9080   -2.8230 C   0  0  0  0  0  0  0  0  0  0  0  0
   -2.2630   14.6660   -2.5030 C   0  0  0  0  0  0  0  0  0  0  0  0
   -1.3520   15.0140   -3.6640 C   0  0  1  0  0  0  0  0  0  0  0  0
   -0.1980   15.7610   -3.2350 O   0  0  0  0  0  0  0  0  0  0  0  0
   -0.8510   13.8450   -4.5100 C   0  0  2  0  0  0  0  0  0  0  0  0
   -1.1210   12.5440   -3.9710 O   0  0  0  0  0  0  0  0  0  0  0  0
    0.7890   15.5920   -4.2530 C   0  0  1  0  0  0  0  0  0  0  0  0
    0.6410   14.1080   -4.6030 C   0  0  2  0  0  0  0  0  0  0  0  0
    0.5540   16.6260   -5.3470 C   0  0  0  0  0  0  0  0  0  0  0  0
    1.1720   13.6740   -5.8340 O   0  0  0  0  0  0  0  0  0  0  0  0
  1  2  2  0
  2  3  1  0
  2  4  1  0
  3  5  1  0
  4  6  1  0
  5  6  1  0
  6  7  2  3
  7  8  1  0
  8  9  1  0
 10  9  1  1
 10 11  1  0
 10 12  1  0
 12 13  1  1
 11 14  1  0
 12 15  1  0
 14 15  1  0
 14 16  1  6
 15 17  1  6
M  END
>  <%Rank>  (334) 
25.419847

>  <N_hits>  (334) 
2

>  <submitter_name>  (334) 
nan

>  <original SMILES>  (334) 
nan

>  <∆G_unbound>  (334) 
1.555888

>  <∆G_bound>  (334) 
-5.155387

>  <regarded>  (334) 
mArh-x0895_0_A_α,5CB5_0_P_γ

>  <ref_pdb>  (334) 
nan

>  <smiles>  (334) 
CC1OC(CCN=C2NCC(=O)N2)C(O)C1O

>  <submitter_email>  (334) 
nan

>  <disregarded>  (334) 


>  <LE>  (334) 
-0.394781

>  <submitter_institution>  (334) 
nan

>  <ref_mols>  (334) 
mArh-x0895_0_A,5CB5_0_P

>  <N_constrained_atoms>  (334) 
15.0

>  <ref_url>  (334) 
nan

>  <method>  (334) 
nan

>  <comRMSD>  (334) 
0.50076

>  <N_unconstrained_atoms>  (334) 
2.0

>  <∆∆G>  (334) 
-6.711274

>  <runtime>  (334) 
30.018345

>  <generation_date>  (334) 
nan

$$$$
5CMS_0_C_β-mArh-x0104_0_A_β
     RDKit          3D

 20 20  0  0  0  0  0  0  0  0999 V2000
   -1.6670   20.2870   -8.2500 O   0  0  0  0  0  0  0  0  0  0  0  0
   -0.2950   19.6200   -7.5950 P   0  0  0  0  0  0  0  0  0  0  0  0
   -0.3300   18.2710   -6.7470 O   0  0  0  0  0  0  0  0  0  0  0  0
    1.0550   20.6270   -7.5850 O   0  0  0  0  0  0  0  0  0  0  0  0
    0.2000   18.8550   -8.7980 O   0  0  0  0  0  0  0  0  0  0  0  0
   -1.7300   17.9890   -6.0250 P   0  0  0  0  0  0  0  0  0  0  0  0
   -1.3640   16.5920   -5.5180 O   0  0  0  0  0  0  0  0  0  0  0  0
   -2.9780   17.3530   -6.7880 O   0  0  0  0  0  0  0  0  0  0  0  0
   -1.8790   18.6200   -4.5050 O   0  0  0  0  0  0  0  0  0  0  0  0
   -1.9830   16.1850   -4.3410 C   0  0  0  0  0  0  0  0  0  0  0  0
   -2.9270   15.0030   -4.4300 C   0  0  0  0  0  0  0  0  0  0  0  0
   -3.2910   14.5510   -3.0300 C   0  0  0  0  0  0  0  0  0  0  0  0
   -4.5810   14.9650   -2.6350 O   0  0  0  0  0  0  0  0  0  0  0  0
   -5.0960   14.8870   -1.3420 C   0  0  0  0  0  0  0  0  0  0  0  0
   -4.2970   14.8570   -0.2360 N   0  0  0  0  0  0  0  0  0  0  0  0
   -6.4550   14.8330   -1.1060 C   0  0  0  0  0  0  0  0  0  0  0  0
   -4.8100   14.7890    1.0100 C   0  0  0  0  0  0  0  0  0  0  0  0
   -7.0020   14.7560    0.1560 C   0  0  0  0  0  0  0  0  0  0  0  0
   -6.1640   14.7360    1.2700 C   0  0  0  0  0  0  0  0  0  0  0  0
   -6.7050   14.6720    2.5730 N   0  0  0  0  0  0  0  0  0  0  0  0
  1  2  1  0
  2  3  1  0
  2  4  1  0
  2  5  1  0
  3  6  1  0
  6  7  1  0
  6  8  1  0
  6  9  1  0
  7 10  1  0
 10 11  1  0
 11 12  1  0
 12 13  1  0
 13 14  1  0
 14 15  2  0
 14 16  1  0
 15 17  1  0
 16 18  2  0
 17 19  2  0
 18 19  1  0
 19 20  1  0
M  CHG  2   4  -1   8  -1
M  END
>  <%Rank>  (335) 
25.496183

>  <N_hits>  (335) 
2

>  <submitter_name>  (335) 
nan

>  <original SMILES>  (335) 
nan

>  <∆G_unbound>  (335) 
0.398919

>  <∆G_bound>  (335) 
-7.601487

>  <regarded>  (335) 
5CMS_0_C_β,mArh-x0104_0_A_β

>  <ref_pdb>  (335) 
nan

>  <smiles>  (335) 
Nc1ccc(OCCCO[PH]([O-])(O)O[PH]([O-])(O)O)nc1

>  <submitter_email>  (335) 
nan

>  <disregarded>  (335) 


>  <LE>  (335) 
-0.40002

>  <submitter_institution>  (335) 
nan

>  <ref_mols>  (335) 
5CMS_0_C,mArh-x0104_0_A

>  <N_constrained_atoms>  (335) 
18.0

>  <ref_url>  (335) 
nan

>  <method>  (335) 
nan

>  <comRMSD>  (335) 
0.582791

>  <N_unconstrained_atoms>  (335) 
2.0

>  <∆∆G>  (335) 
-8.000405

>  <runtime>  (335) 
35.742021

>  <generation_date>  (335) 
nan

$$$$
mArh-5cb5_K_0_K_γ-mArh-5cms_F_6_F_β
     RDKit          3D

 16 16  0  0  0  0  0  0  0  0999 V2000
   -1.1230   12.5010   -4.1160 O   0  0  0  0  0  0  0  0  0  0  0  0
   -0.2350   13.5760   -3.8830 C   0  0  2  0  0  0  0  0  0  0  0  0
   -0.7630   14.6040   -2.8880 C   0  0  0  0  0  0  0  0  0  0  0  0
    0.0590   14.3870   -5.1440 C   0  0  2  0  0  0  0  0  0  0  0  0
    1.4830   14.4440   -5.2180 O   0  0  0  0  0  0  0  0  0  0  0  0
   -0.4010   15.8810   -3.4150 O   0  0  0  0  0  0  0  0  0  0  0  0
   -0.5920   15.7380   -4.8220 C   0  0  1  0  0  0  0  0  0  0  0  0
   -0.0770   17.0080   -5.4900 C   0  0  0  0  0  0  0  0  0  0  0  0
   -1.4250   18.1030   -6.0140 P   0  0  1  0  0  0  0  0  0  0  0  0
   -0.8730   19.4750   -6.5630 O   0  0  0  0  0  0  0  0  0  0  0  0
   -2.4900   17.4680   -6.8520 O   0  0  0  0  0  0  0  0  0  0  0  0
   -2.0080   18.5920   -4.6270 O   0  0  0  0  0  0  0  0  0  0  0  0
   -0.2870   20.0010   -7.9100 P   0  0  0  0  0  0  0  0  0  0  0  0
   -1.5600   20.5820   -8.6650 O   0  0  0  0  0  0  0  0  0  0  0  0
    0.8360   20.9600   -7.8520 O   0  0  0  0  0  0  0  0  0  0  0  0
   -0.0200   18.7020   -8.8030 O   0  0  0  0  0  0  0  0  0  0  0  0
  2  1  1  6
  2  3  1  0
  2  4  1  0
  4  5  1  1
  3  6  1  0
  4  7  1  0
  6  7  1  0
  7  8  1  6
  8  9  1  0
  9 10  1  0
  9 11  2  0
  9 12  1  1
 10 13  1  0
 13 14  1  0
 13 15  2  0
 13 16  1  0
M  END
>  <%Rank>  (336) 
25.572519

>  <N_hits>  (336) 
2

>  <submitter_name>  (336) 
nan

>  <original SMILES>  (336) 
nan

>  <∆G_unbound>  (336) 
1.057928

>  <∆G_bound>  (336) 
-9.208495

>  <regarded>  (336) 
mArh-5cb5_K_0_K_γ,mArh-5cms_F_6_F_β

>  <ref_pdb>  (336) 
nan

>  <smiles>  (336) 
O=P(O)(O)OP(=O)(O)CC1OCC(O)C1O

>  <submitter_email>  (336) 
nan

>  <disregarded>  (336) 


>  <LE>  (336) 
-0.641651

>  <submitter_institution>  (336) 
nan

>  <ref_mols>  (336) 
mArh-5cb5_K_0_K,mArh-5cms_F_6_F

>  <N_constrained_atoms>  (336) 
16.0

>  <ref_url>  (336) 
nan

>  <method>  (336) 
nan

>  <comRMSD>  (336) 
0.716696

>  <N_unconstrained_atoms>  (336) 
0.0

>  <∆∆G>  (336) 
-10.266423

>  <runtime>  (336) 
29.816376

>  <generation_date>  (336) 
nan

$$$$
mArh-EU0144_0_A_α-5DUS_0_A_γ
     RDKit          3D

 18 19  0  0  0  0  0  0  0  0999 V2000
   -8.4590   14.7130    0.8950 C   0  0  0  0  0  0  0  0  0  0  0  0
   -7.0410   14.6880    0.4880 C   0  0  0  0  0  0  0  0  0  0  0  0
   -6.5190   14.3690   -0.6670 N   0  0  0  0  0  0  0  0  0  0  0  0
   -6.1330   15.0490    1.4420 O   0  0  0  0  0  0  0  0  0  0  0  0
   -4.9240   14.9420    0.8230 C   0  0  0  0  0  0  0  0  0  0  0  0
   -5.1770   14.5240   -0.4600 C   0  0  0  0  0  0  0  0  0  0  0  0
   -3.8650   15.2410    1.5800 N   0  0  0  0  0  0  0  0  0  0  0  0
   -4.3060   14.2290   -1.5260 C   0  0  0  0  0  0  0  0  0  0  0  0
   -3.6810   13.7810   -2.4360 C   0  0  0  0  0  0  0  0  0  0  0  0
   -3.0430   13.0460   -3.5240 C   0  0  0  0  0  0  0  0  0  0  0  0
   -2.2110   13.8480   -4.3320 O   0  0  0  0  0  0  0  0  0  0  0  0
   -0.8420   13.6950   -4.0170 C   0  0  2  0  0  0  0  0  0  0  0  0
   -0.4790   14.4440   -2.7270 C   0  0  0  0  0  0  0  0  0  0  0  0
    0.0380   14.3660   -5.0450 C   0  0  2  0  0  0  0  0  0  0  0  0
    1.3520   13.8060   -4.9780 O   0  0  0  0  0  0  0  0  0  0  0  0
    0.2290   15.6350   -3.1090 O   0  0  0  0  0  0  0  0  0  0  0  0
   -0.0430   15.7880   -4.5130 C   0  0  1  0  0  0  0  0  0  0  0  0
    0.9170   16.7850   -5.1240 C   0  0  0  0  0  0  0  0  0  0  0  0
  1  2  1  0
  2  3  2  0
  2  4  1  0
  4  5  1  0
  3  6  1  0
  5  6  2  0
  5  7  1  0
  6  8  1  0
  8  9  3  0
  9 10  1  0
 10 11  1  0
 12 11  1  6
 12 13  1  0
 12 14  1  0
 14 15  1  1
 13 16  1  0
 14 17  1  0
 16 17  1  0
 17 18  1  6
M  END
>  <%Rank>  (337) 
25.648855

>  <N_hits>  (337) 
2

>  <submitter_name>  (337) 
nan

>  <original SMILES>  (337) 
nan

>  <∆G_unbound>  (337) 
0.209374

>  <∆G_bound>  (337) 
-4.342027

>  <regarded>  (337) 
mArh-EU0144_0_A_α,5DUS_0_A_γ

>  <ref_pdb>  (337) 
nan

>  <smiles>  (337) 
Cc1nc(C#CCOC2COC(C)C2O)c(N)o1

>  <submitter_email>  (337) 
nan

>  <disregarded>  (337) 


>  <LE>  (337) 
-0.252856

>  <submitter_institution>  (337) 
nan

>  <ref_mols>  (337) 
mArh-EU0144_0_A,5DUS_0_A

>  <N_constrained_atoms>  (337) 
17.0

>  <ref_url>  (337) 
nan

>  <method>  (337) 
nan

>  <comRMSD>  (337) 
0.51573

>  <N_unconstrained_atoms>  (337) 
1.0

>  <∆∆G>  (337) 
-4.5514

>  <runtime>  (337) 
35.241449

>  <generation_date>  (337) 
nan

$$$$
mArh-5cb3_0_A_α-5CMS_0_L_γ
     RDKit          3D

 22 23  0  0  0  0  0  0  0  0999 V2000
   -2.1640   21.7850   -8.3420 C   0  0  0  0  0  0  0  0  0  0  0  0
   -3.5800   22.0050   -8.8570 C   0  0  1  0  0  0  0  0  0  0  0  0
   -4.4240   21.0090   -8.2650 O   0  0  0  0  0  0  0  0  0  0  0  0
   -4.1180   23.3830   -8.4880 C   0  0  1  0  0  0  0  0  0  0  0  0
   -4.5530   24.0650   -9.6720 O   0  0  0  0  0  0  0  0  0  0  0  0
   -5.3660   21.6100   -7.3880 C   0  0  2  0  0  0  0  0  0  0  0  0
   -5.3670   23.1300   -7.6570 C   0  0  1  0  0  0  0  0  0  0  0  0
   -5.0340   21.3370   -6.0290 O   0  0  0  0  0  0  0  0  0  0  0  0
   -5.4340   23.9610   -6.4870 O   0  0  0  0  0  0  0  0  0  0  0  0
   -3.6010   21.3250   -5.8150 C   0  0  0  0  0  0  0  0  0  0  0  0
   -2.9190   19.9670   -6.0870 C   0  0  0  0  0  0  0  0  0  0  0  0
   -1.5320   19.9700   -6.7230 C   0  0  0  0  0  0  0  0  0  0  0  0
   -0.9000   18.5680   -6.6700 C   0  0  0  0  0  0  0  0  0  0  0  0
   -0.2700   18.1050   -5.3320 C   0  0  0  0  0  0  0  0  0  0  0  0
    0.6260   16.8950   -5.5940 C   0  0  0  0  0  0  0  0  0  0  0  0
    0.9320   15.8930   -4.4760 C   0  0  1  0  0  0  0  0  0  0  0  0
   -0.0800   15.9740   -3.4570 O   0  0  0  0  0  0  0  0  0  0  0  0
    0.9730   14.3990   -4.9010 C   0  0  2  0  0  0  0  0  0  0  0  0
    0.7780   14.0730   -6.2470 O   0  0  0  0  0  0  0  0  0  0  0  0
   -0.2180   14.6600   -2.9150 C   0  0  0  0  0  0  0  0  0  0  0  0
   -0.1340   13.7410   -4.1080 C   0  0  2  0  0  0  0  0  0  0  0  0
    0.2190   12.3970   -3.8210 O   0  0  0  0  0  0  0  0  0  0  0  0
  2  1  1  1
  2  3  1  0
  2  4  1  0
  4  5  1  6
  3  6  1  0
  4  7  1  0
  6  7  1  0
  6  8  1  1
  7  9  1  1
  8 10  1  0
 10 11  1  0
 11 12  1  0
 12 13  1  0
 13 14  1  0
 14 15  1  0
 16 15  1  6
 16 17  1  0
 16 18  1  0
 18 19  1  6
 17 20  1  0
 18 21  1  0
 20 21  1  0
 21 22  1  1
M  END
>  <%Rank>  (338) 
25.725191

>  <N_hits>  (338) 
2

>  <submitter_name>  (338) 
nan

>  <original SMILES>  (338) 
nan

>  <∆G_unbound>  (338) 
0.187336

>  <∆G_bound>  (338) 
-11.377345

>  <regarded>  (338) 
mArh-5cb3_0_A_α,5CMS_0_L_γ

>  <ref_pdb>  (338) 
nan

>  <smiles>  (338) 
CC1OC(OCCCCCCC2OCC(O)C2O)C(O)C1O

>  <submitter_email>  (338) 
nan

>  <disregarded>  (338) 


>  <LE>  (338) 
-0.525667

>  <submitter_institution>  (338) 
nan

>  <ref_mols>  (338) 
mArh-5cb3_0_A,5CMS_0_L

>  <N_constrained_atoms>  (338) 
17.0

>  <ref_url>  (338) 
nan

>  <method>  (338) 
nan

>  <comRMSD>  (338) 
0.534798

>  <N_unconstrained_atoms>  (338) 
5.0

>  <∆∆G>  (338) 
-11.564681

>  <runtime>  (338) 
38.813569

>  <generation_date>  (338) 
nan

$$$$
mArh-5cms_O_14_O_γ-mArh-EU0860_0_A_α
     RDKit          3D

 18 19  0  0  0  0  0  0  0  0999 V2000
   -1.0650   12.5250   -3.9350 O   0  0  0  0  0  0  0  0  0  0  0  0
   -0.7120   13.8890   -4.1700 C   0  0  1  0  0  0  0  0  0  0  0  0
   -0.6220   14.6940   -2.8860 C   0  0  0  0  0  0  0  0  0  0  0  0
    0.7030   14.0460   -4.6880 C   0  0  1  0  0  0  0  0  0  0  0  0
    0.9000   13.6540   -6.0280 O   0  0  0  0  0  0  0  0  0  0  0  0
    0.3420   15.7410   -3.1010 O   0  0  0  0  0  0  0  0  0  0  0  0
    0.9740   15.5280   -4.3800 C   0  0  2  0  0  0  0  0  0  0  0  0
    0.4370   16.5910   -5.3350 C   0  0  0  0  0  0  0  0  0  0  0  0
    0.9370   12.2340   -6.1940 C   0  0  0  0  0  0  0  0  0  0  0  0
   -0.4500   11.6990   -6.6360 C   0  0  0  0  0  0  0  0  0  0  0  0
   -0.4750   10.7830   -7.8130 N   0  0  0  0  0  0  0  0  0  0  0  0
   -0.5660    9.3780   -7.4140 N   0  0  0  0  0  0  0  0  0  0  0  0
    0.7620   10.8650   -8.6110 C   0  0  0  0  0  0  0  0  0  0  0  0
   -1.9290    8.9900   -7.0470 C   0  0  0  0  0  0  0  0  0  0  0  0
    1.1460    9.4230   -8.9000 C   0  0  1  0  0  0  0  0  0  0  0  0
   -0.1090    8.6610   -8.6060 C   0  0  0  0  0  0  0  0  0  0  0  0
    1.6080    9.2470  -10.3220 C   0  0  0  0  0  0  0  0  0  0  0  0
    2.2420    8.2610  -10.6960 O   0  0  0  0  0  0  0  0  0  0  0  0
  2  1  1  1
  2  3  1  0
  2  4  1  0
  4  5  1  6
  3  6  1  0
  4  7  1  0
  6  7  1  0
  7  8  1  6
  5  9  1  0
  9 10  1  0
 10 11  1  0
 11 12  1  0
 11 13  1  0
 12 14  1  0
 13 15  1  0
 12 16  1  0
 15 16  1  0
 15 17  1  6
 17 18  2  0
M  END
>  <%Rank>  (339) 
25.801527

>  <N_hits>  (339) 
2

>  <submitter_name>  (339) 
nan

>  <original SMILES>  (339) 
nan

>  <∆G_unbound>  (339) 
0.31371

>  <∆G_bound>  (339) 
-4.170388

>  <regarded>  (339) 
mArh-5cms_O_14_O_γ,mArh-EU0860_0_A_α

>  <ref_pdb>  (339) 
nan

>  <smiles>  (339) 
CC1OCC(O)C1OCCN1CC(C=O)CN1C

>  <submitter_email>  (339) 
nan

>  <disregarded>  (339) 


>  <LE>  (339) 
-0.249117

>  <submitter_institution>  (339) 
nan

>  <ref_mols>  (339) 
mArh-5cms_O_14_O,mArh-EU0860_0_A

>  <N_constrained_atoms>  (339) 
16.0

>  <ref_url>  (339) 
nan

>  <method>  (339) 
nan

>  <comRMSD>  (339) 
0.458755

>  <N_unconstrained_atoms>  (339) 
2.0

>  <∆∆G>  (339) 
-4.484098

>  <runtime>  (339) 
40.131931

>  <generation_date>  (339) 
nan

$$$$
mArh-x0900_1_A_α-mArh-EU0815_0_A_β
     RDKit          3D

 19 20  0  0  0  0  0  0  0  0999 V2000
   -0.8700    9.8930   -9.6920 O   0  0  0  0  0  0  0  0  0  0  0  0
   -0.8570    9.5060   -8.5350 C   0  0  0  0  0  0  0  0  0  0  0  0
    0.1620    8.8080   -7.9290 N   0  0  0  0  0  0  0  0  0  0  0  0
   -1.9350    9.6870   -7.4900 C   0  0  2  0  0  0  0  0  0  0  0  0
   -1.7540   10.9860   -6.6980 C   0  0  0  0  0  0  0  0  0  0  0  0
   -1.7780    8.3900   -6.6830 C   0  0  0  0  0  0  0  0  0  0  0  0
   -0.2970    8.0560   -6.7920 C   0  0  0  0  0  0  0  0  0  0  0  0
   -2.8880   11.3230   -5.7200 C   0  0  0  0  0  0  0  0  0  0  0  0
   -2.9790   12.7860   -5.2570 C   0  0  0  0  0  0  0  0  0  0  0  0
   -3.5430   12.9870   -3.8410 C   0  0  0  0  0  0  0  0  0  0  0  0
   -4.3060   14.2870   -3.5580 C   0  0  0  0  0  0  0  0  0  0  0  0
   -3.7630   15.1260   -2.3940 C   0  0  0  0  0  0  0  0  0  0  0  0
   -4.4780   14.9410   -1.0800 C   0  0  0  0  0  0  0  0  0  0  0  0
   -3.7410   14.6780    0.0840 C   0  0  0  0  0  0  0  0  0  0  0  0
   -5.8690   15.0210   -0.9810 C   0  0  0  0  0  0  0  0  0  0  0  0
   -6.6130   15.2740   -2.0650 F   0  0  0  0  0  0  0  0  0  0  0  0
   -4.3900   14.4990    1.3060 C   0  0  0  0  0  0  0  0  0  0  0  0
   -6.5220   14.8410    0.2330 C   0  0  0  0  0  0  0  0  0  0  0  0
   -5.7770   14.5800    1.3820 C   0  0  0  0  0  0  0  0  0  0  0  0
  1  2  2  0
  2  3  1  0
  2  4  1  0
  4  5  1  1
  4  6  1  0
  3  7  1  0
  6  7  1  0
  5  8  1  0
  8  9  1  0
  9 10  1  0
 10 11  1  0
 11 12  1  0
 12 13  1  0
 13 14  2  0
 13 15  1  0
 15 16  1  0
 14 17  1  0
 15 18  2  0
 17 19  2  0
 18 19  1  0
M  END
>  <%Rank>  (340) 
25.877863

>  <N_hits>  (340) 
2

>  <submitter_name>  (340) 
nan

>  <original SMILES>  (340) 
nan

>  <∆G_unbound>  (340) 
-0.081917

>  <∆G_bound>  (340) 
-3.881578

>  <regarded>  (340) 
mArh-x0900_1_A_α,mArh-EU0815_0_A_β

>  <ref_pdb>  (340) 
nan

>  <smiles>  (340) 
O=C1NCCC1CCCCCCc1ccccc1F

>  <submitter_email>  (340) 
nan

>  <disregarded>  (340) 


>  <LE>  (340) 
-0.199982

>  <submitter_institution>  (340) 
nan

>  <ref_mols>  (340) 
mArh-x0900_1_A,mArh-EU0815_0_A

>  <N_constrained_atoms>  (340) 
14.0

>  <ref_url>  (340) 
nan

>  <method>  (340) 
nan

>  <comRMSD>  (340) 
0.269234

>  <N_unconstrained_atoms>  (340) 
5.0

>  <∆∆G>  (340) 
-3.799661

>  <runtime>  (340) 
31.628765

>  <generation_date>  (340) 
nan

$$$$
5CMS_0_M_δ-mArh-5cms_L_11_L_β
     RDKit          3D

 21 22  0  0  0  0  0  0  0  0999 V2000
   -3.8280   15.6370    1.7070 N   0  0  0  0  0  0  0  0  0  0  0  0
   -2.6570   15.3860    0.8860 C   0  0  2  0  0  0  0  0  0  0  0  0
   -2.9590   14.4130   -0.2500 C   0  0  2  0  0  0  0  0  0  0  0  0
   -1.6200   14.8320    1.7290 N   0  0  0  0  0  0  0  0  0  0  0  0
   -1.6080   13.9590   -0.8040 C   0  0  1  0  0  0  0  0  0  0  0  0
   -3.6390   15.0460   -1.4200 N   0  0  0  0  0  0  0  0  0  0  0  0
   -0.3270   14.6550    1.0720 C   0  0  0  0  0  0  0  0  0  0  0  0
   -1.7250   14.1210   -2.2210 N   0  0  0  0  0  0  0  0  0  0  0  0
   -2.4780   15.3270   -2.2480 C   0  0  1  0  0  0  0  0  0  0  0  0
   -0.4710   14.7140   -0.3540 N   0  0  0  0  0  0  0  0  0  0  0  0
   -2.6940   15.8330   -3.6580 C   0  0  0  0  0  0  0  0  0  0  0  0
   -1.5180   16.7420   -4.0000 C   0  0  0  0  0  0  0  0  0  0  0  0
   -1.9650   17.9880   -4.5130 O   0  0  0  0  0  0  0  0  0  0  0  0
   -1.7630   18.0890   -6.0660 P   0  0  1  0  0  0  0  0  0  0  0  0
   -1.2030   19.4710   -6.5270 O   0  0  0  0  0  0  0  0  0  0  0  0
   -0.4340   17.2110   -6.1360 O   0  0  0  0  0  0  0  0  0  0  0  0
   -2.8020   17.4680   -6.8850 O   0  0  0  0  0  0  0  0  0  0  0  0
   -0.3150   19.7430   -7.7930 P   0  0  0  0  0  0  0  0  0  0  0  0
   -1.2500   20.5660   -8.7790 O   0  0  0  0  0  0  0  0  0  0  0  0
    0.9660   20.4420   -7.5380 O   0  0  0  0  0  0  0  0  0  0  0  0
   -0.1280   18.4020   -8.6340 O   0  0  0  0  0  0  0  0  0  0  0  0
  2  1  1  1
  2  3  1  0
  2  4  1  0
  3  5  1  0
  3  6  1  6
  4  7  1  0
  5  8  1  6
  6  9  1  0
  8  9  1  0
  5 10  1  0
  7 10  1  0
  9 11  1  6
 11 12  1  0
 12 13  1  0
 13 14  1  0
 14 15  1  0
 14 16  1  1
 14 17  2  0
 15 18  1  0
 18 19  1  0
 18 20  2  0
 18 21  1  0
M  END
>  <%Rank>  (341) 
25.954198

>  <N_hits>  (341) 
2

>  <submitter_name>  (341) 
nan

>  <original SMILES>  (341) 
nan

>  <∆G_unbound>  (341) 
1.894859

>  <∆G_bound>  (341) 
-9.213426

>  <regarded>  (341) 
5CMS_0_M_δ,mArh-5cms_L_11_L_β

>  <ref_pdb>  (341) 
nan

>  <smiles>  (341) 
NC1NCNC2NC(CCOP(=O)(O)OP(=O)(O)O)NC12

>  <submitter_email>  (341) 
nan

>  <disregarded>  (341) 


>  <LE>  (341) 
-0.528966

>  <submitter_institution>  (341) 
nan

>  <ref_mols>  (341) 
5CMS_0_M,mArh-5cms_L_11_L

>  <N_constrained_atoms>  (341) 
19.0

>  <ref_url>  (341) 
nan

>  <method>  (341) 
nan

>  <comRMSD>  (341) 
0.672844

>  <N_unconstrained_atoms>  (341) 
2.0

>  <∆∆G>  (341) 
-11.108284

>  <runtime>  (341) 
34.688229

>  <generation_date>  (341) 
nan

$$$$
mArh-5cms_M_12_M_α-mArh-5cb5_I_0_I_β
     RDKit          3D

 17 17  0  0  0  0  0  0  0  0999 V2000
   -1.8760   21.5770   -8.6430 C   0  0  0  0  0  0  0  0  0  0  0  0
   -0.7110   20.3810   -7.9450 P   0  0  2  0  0  0  0  0  0  0  0  0
   -1.3840   19.8870   -6.5910 O   0  0  0  0  0  0  0  0  0  0  0  0
   -1.5730   22.1490  -10.0310 C   0  0  1  0  0  0  0  0  0  0  0  0
    0.7130   20.8140   -7.7720 O   0  0  0  0  0  0  0  0  0  0  0  0
   -0.7740   19.0000   -8.7690 O   0  0  0  0  0  0  0  0  0  0  0  0
   -2.4630   21.6010  -11.0290 O   0  0  0  0  0  0  0  0  0  0  0  0
   -1.6700   23.6650  -10.2330 C   0  0  1  0  0  0  0  0  0  0  0  0
   -0.5770   24.1200  -11.0330 O   0  0  0  0  0  0  0  0  0  0  0  0
   -1.6340   18.3560   -6.2570 P   0  0  0  0  0  0  0  0  0  0  0  0
   -3.5760   22.4990  -11.0860 C   0  0  1  0  0  0  0  0  0  0  0  0
   -2.9980   23.9050  -10.9610 C   0  0  2  0  0  0  0  0  0  0  0  0
   -4.3900   22.3560  -12.2310 O   0  0  0  0  0  0  0  0  0  0  0  0
   -2.7850   24.5510  -12.2450 O   0  0  0  0  0  0  0  0  0  0  0  0
   -0.1990   17.6800   -6.3560 O   0  0  0  0  0  0  0  0  0  0  0  0
   -2.6680   17.6350   -7.0120 O   0  0  0  0  0  0  0  0  0  0  0  0
   -1.8490   18.2900   -4.6880 O   0  0  0  0  0  0  0  0  0  0  0  0
  1  2  1  0
  2  3  1  0
  4  1  1  1
  2  5  2  0
  2  6  1  6
  4  7  1  0
  4  8  1  0
  8  9  1  6
  3 10  1  0
  7 11  1  0
  8 12  1  0
 11 12  1  0
 11 13  1  6
 12 14  1  6
 10 15  1  0
 10 16  2  0
 10 17  1  0
M  END
>  <%Rank>  (342) 
26.030534

>  <N_hits>  (342) 
2

>  <submitter_name>  (342) 
nan

>  <original SMILES>  (342) 
nan

>  <∆G_unbound>  (342) 
1.703844

>  <∆G_bound>  (342) 
-8.886317

>  <regarded>  (342) 
mArh-5cms_M_12_M_α,mArh-5cb5_I_0_I_β

>  <ref_pdb>  (342) 
nan

>  <smiles>  (342) 
O=P(O)(O)OP(=O)(O)CC1OC(O)C(O)C1O

>  <submitter_email>  (342) 
nan

>  <disregarded>  (342) 


>  <LE>  (342) 
-0.622951

>  <submitter_institution>  (342) 
nan

>  <ref_mols>  (342) 
mArh-5cms_M_12_M,mArh-5cb5_I_0_I

>  <N_constrained_atoms>  (342) 
17.0

>  <ref_url>  (342) 
nan

>  <method>  (342) 
nan

>  <comRMSD>  (342) 
0.731222

>  <N_unconstrained_atoms>  (342) 
0.0

>  <∆∆G>  (342) 
-10.590161

>  <runtime>  (342) 
35.319887

>  <generation_date>  (342) 
nan

$$$$
mArh-5cms_P_15_P_β-mArh-6fx_7_0A_γ
     RDKit          3D

 16 16  0  0  0  0  0  0  0  0999 V2000
   -0.9110   20.7360   -8.6710 O   0  0  0  0  0  0  0  0  0  0  0  0
   -0.1790   19.6740   -7.7490 P   0  0  0  0  0  0  0  0  0  0  0  0
   -1.2700   19.3970   -6.6550 O   0  0  0  0  0  0  0  0  0  0  0  0
    1.1520   20.0930   -7.2790 O   0  0  0  0  0  0  0  0  0  0  0  0
   -0.1370   18.4160   -8.7190 O   0  0  0  0  0  0  0  0  0  0  0  0
   -1.6710   17.9880   -6.0730 P   0  0  2  0  0  0  0  0  0  0  0  0
   -0.4200   17.0220   -5.8150 O   0  0  0  0  0  0  0  0  0  0  0  0
   -2.8410   17.3660   -6.7230 O   0  0  0  0  0  0  0  0  0  0  0  0
   -1.9220   18.4270   -4.5680 O   0  0  0  0  0  0  0  0  0  0  0  0
   -0.7460   15.9930   -4.8800 C   0  0  2  0  0  0  0  0  0  0  0  0
   -0.1050   16.0790   -3.6010 O   0  0  0  0  0  0  0  0  0  0  0  0
   -0.5100   14.5300   -5.2590 C   0  0  1  0  0  0  0  0  0  0  0  0
    0.8630   14.1000   -5.2900 O   0  0  0  0  0  0  0  0  0  0  0  0
   -0.4640   14.8380   -2.9510 C   0  0  0  0  0  0  0  0  0  0  0  0
   -1.1330   13.9680   -4.0170 C   0  0  2  0  0  0  0  0  0  0  0  0
   -0.8590   12.5890   -3.9160 O   0  0  0  0  0  0  0  0  0  0  0  0
  1  2  1  0
  2  3  1  0
  2  4  2  0
  2  5  1  0
  3  6  1  0
  6  7  1  0
  6  8  2  0
  6  9  1  1
 10  7  1  6
 10 11  1  0
 10 12  1  0
 12 13  1  1
 11 14  1  0
 12 15  1  0
 14 15  1  0
 15 16  1  1
M  END
>  <%Rank>  (343) 
26.10687

>  <N_hits>  (343) 
2

>  <submitter_name>  (343) 
nan

>  <original SMILES>  (343) 
nan

>  <∆G_unbound>  (343) 
1.157846

>  <∆G_bound>  (343) 
-7.198928

>  <regarded>  (343) 
mArh-5cms_P_15_P_β,mArh-6fx_7_0A_γ

>  <ref_pdb>  (343) 
nan

>  <smiles>  (343) 
O=P(O)(O)OP(=O)(O)OC1OCC(O)C1O

>  <submitter_email>  (343) 
nan

>  <disregarded>  (343) 


>  <LE>  (343) 
-0.522298

>  <submitter_institution>  (343) 
nan

>  <ref_mols>  (343) 
mArh-5cms_P_15_P,mArh-6fx_7_0A

>  <N_constrained_atoms>  (343) 
16.0

>  <ref_url>  (343) 
nan

>  <method>  (343) 
nan

>  <comRMSD>  (343) 
0.659457

>  <N_unconstrained_atoms>  (343) 
0.0

>  <∆∆G>  (343) 
-8.356774

>  <runtime>  (343) 
27.677778

>  <generation_date>  (343) 
nan

$$$$
5CB5_0_L_β-mArh-x0371_0_A_β
     RDKit          3D

 22 23  0  0  0  0  0  0  0  0999 V2000
   -1.7590   20.7090   -8.7160 O   0  0  0  0  0  0  0  0  0  0  0  0
   -0.6540   20.2570   -7.6460 P   0  0  0  0  0  0  0  0  0  0  0  0
   -1.0330   19.4680   -6.2510 O   0  0  0  0  0  0  0  0  0  0  0  0
    0.8990   20.9240   -7.8090 O   0  0  0  0  0  0  0  0  0  0  0  0
   -0.1770   19.0220   -8.4280 O   0  0  0  0  0  0  0  0  0  0  0  0
   -1.4580   18.0150   -6.1190 P   0  0  0  0  0  0  0  0  0  0  0  0
    0.0270   17.4900   -6.5900 O   0  0  0  0  0  0  0  0  0  0  0  0
   -2.6650   18.2240   -7.1760 O   0  0  0  0  0  0  0  0  0  0  0  0
   -1.7260   18.1020   -4.5220 O   0  0  0  0  0  0  0  0  0  0  0  0
   -1.2460   16.9310   -4.0280 C   0  0  0  0  0  0  0  0  0  0  0  0
   -2.4320   15.9850   -3.8120 C   0  0  0  0  0  0  0  0  0  0  0  0
   -2.0720   15.1430   -2.6120 C   0  0  0  0  0  0  0  0  0  0  0  0
   -3.1360   15.0780   -1.5680 C   0  0  0  0  0  0  0  0  0  0  0  0
   -2.7000   15.1340   -0.2670 C   0  0  0  0  0  0  0  0  0  0  0  0
   -4.5100   14.9470   -1.7640 C   0  0  0  0  0  0  0  0  0  0  0  0
   -5.4100   14.8470   -0.7010 C   0  0  0  0  0  0  0  0  0  0  0  0
   -3.5760   15.0420    0.7860 C   0  0  0  0  0  0  0  0  0  0  0  0
   -4.9230   14.8890    0.5930 C   0  0  0  0  0  0  0  0  0  0  0  0
   -6.7540   14.6980   -0.5670 N   0  0  0  0  0  0  0  0  0  0  0  0
   -7.1030   14.6350    0.7300 C   0  0  0  0  0  0  0  0  0  0  0  0
   -5.9680   14.7540    1.4350 N   0  0  0  0  0  0  0  0  0  0  0  0
   -8.4610   14.4670    1.3460 C   0  0  0  0  0  0  0  0  0  0  0  0
  1  2  1  0
  2  3  1  0
  2  4  1  0
  2  5  1  0
  3  6  1  0
  6  7  1  0
  6  8  1  0
  6  9  1  0
  9 10  1  0
 10 11  1  0
 11 12  1  0
 12 13  1  0
 13 14  2  0
 13 15  1  0
 15 16  2  0
 14 17  1  0
 16 18  1  0
 17 18  2  0
 16 19  1  0
 19 20  2  0
 18 21  1  0
 20 21  1  0
 20 22  1  0
M  CHG  2   4  -1   8  -1
M  END
>  <%Rank>  (344) 
26.183206

>  <N_hits>  (344) 
2

>  <submitter_name>  (344) 
nan

>  <original SMILES>  (344) 
nan

>  <∆G_unbound>  (344) 
0.278571

>  <∆G_bound>  (344) 
-8.65024

>  <regarded>  (344) 
5CB5_0_L_β,mArh-x0371_0_A_β

>  <ref_pdb>  (344) 
nan

>  <smiles>  (344) 
Cc1nc2cc(CCCO[PH]([O-])(O)O[PH]([O-])(O)O)ccc2[nH]1

>  <submitter_email>  (344) 
nan

>  <disregarded>  (344) 


>  <LE>  (344) 
-0.405855

>  <submitter_institution>  (344) 
nan

>  <ref_mols>  (344) 
5CB5_0_L,mArh-x0371_0_A

>  <N_constrained_atoms>  (344) 
19.0

>  <ref_url>  (344) 
nan

>  <method>  (344) 
nan

>  <comRMSD>  (344) 
0.586422

>  <N_unconstrained_atoms>  (344) 
3.0

>  <∆∆G>  (344) 
-8.928811

>  <runtime>  (344) 
58.912776

>  <generation_date>  (344) 
nan

$$$$
mArh-5cms_G_3_G_β-mArh-5cms_R_17_R_β
     RDKit          3D

 16 16  0  0  0  0  0  0  0  0999 V2000
   -1.9730   13.0490   -4.0260 O   0  0  0  0  0  0  0  0  0  0  0  0
   -0.6520   13.5460   -3.8890 C   0  0  2  0  0  0  0  0  0  0  0  0
   -0.4740   14.5290   -2.7200 C   0  0  0  0  0  0  0  0  0  0  0  0
   -0.2150   14.3580   -5.1010 C   0  0  2  0  0  0  0  0  0  0  0  0
    1.1920   14.1110   -5.2480 O   0  0  0  0  0  0  0  0  0  0  0  0
    0.0030   15.7700   -3.2710 O   0  0  0  0  0  0  0  0  0  0  0  0
   -0.5510   15.7600   -4.5940 C   0  0  1  0  0  0  0  0  0  0  0  0
   -0.0830   16.9720   -5.3890 C   0  0  0  0  0  0  0  0  0  0  0  0
   -1.4650   18.0050   -5.9430 P   0  0  1  0  0  0  0  0  0  0  0  0
   -0.9680   19.3650   -6.5580 O   0  0  0  0  0  0  0  0  0  0  0  0
   -2.5090   17.3150   -6.7620 O   0  0  0  0  0  0  0  0  0  0  0  0
   -2.0500   18.5340   -4.5770 O   0  0  0  0  0  0  0  0  0  0  0  0
   -0.1590   19.8290   -7.8120 P   0  0  0  0  0  0  0  0  0  0  0  0
   -1.2810   20.5830   -8.6480 O   0  0  0  0  0  0  0  0  0  0  0  0
    1.0560   20.6570   -7.5920 O   0  0  0  0  0  0  0  0  0  0  0  0
    0.0100   18.5610   -8.7730 O   0  0  0  0  0  0  0  0  0  0  0  0
  2  1  1  6
  2  3  1  0
  2  4  1  0
  4  5  1  1
  3  6  1  0
  4  7  1  0
  6  7  1  0
  7  8  1  6
  8  9  1  0
  9 10  1  0
  9 11  2  0
  9 12  1  1
 10 13  1  0
 13 14  1  0
 13 15  2  0
 13 16  1  0
M  END
>  <%Rank>  (345) 
26.259542

>  <N_hits>  (345) 
2

>  <submitter_name>  (345) 
nan

>  <original SMILES>  (345) 
nan

>  <∆G_unbound>  (345) 
1.057928

>  <∆G_bound>  (345) 
-9.1202

>  <regarded>  (345) 
mArh-5cms_G_3_G_β,mArh-5cms_R_17_R_β

>  <ref_pdb>  (345) 
nan

>  <smiles>  (345) 
O=P(O)(O)OP(=O)(O)CC1OCC(O)C1O

>  <submitter_email>  (345) 
nan

>  <disregarded>  (345) 


>  <LE>  (345) 
-0.636133

>  <submitter_institution>  (345) 
nan

>  <ref_mols>  (345) 
mArh-5cms_G_3_G,mArh-5cms_R_17_R

>  <N_constrained_atoms>  (345) 
16.0

>  <ref_url>  (345) 
nan

>  <method>  (345) 
nan

>  <comRMSD>  (345) 
0.716624

>  <N_unconstrained_atoms>  (345) 
0.0

>  <∆∆G>  (345) 
-10.178128

>  <runtime>  (345) 
38.098268

>  <generation_date>  (345) 
nan

$$$$
6WOJ_0_D_γ-mArh-EU0860_0_A_α
     RDKit          3D

 18 19  0  0  0  0  0  0  0  0999 V2000
   -1.1900   12.6970   -4.2320 O   0  0  0  0  0  0  0  0  0  0  0  0
   -0.6330   14.0080   -4.2560 C   0  0  1  0  0  0  0  0  0  0  0  0
   -0.5580   14.6560   -2.8880 C   0  0  0  0  0  0  0  0  0  0  0  0
    0.8340   14.0110   -4.6130 C   0  0  1  0  0  0  0  0  0  0  0  0
    1.1180   13.6340   -5.9430 O   0  0  0  0  0  0  0  0  0  0  0  0
    0.5090   15.6250   -2.9480 O   0  0  0  0  0  0  0  0  0  0  0  0
    1.2040   15.4450   -4.2050 C   0  0  2  0  0  0  0  0  0  0  0  0
    0.7890   16.5830   -5.1370 C   0  0  0  0  0  0  0  0  0  0  0  0
    1.0310   12.2170   -6.1650 C   0  0  0  0  0  0  0  0  0  0  0  0
   -0.3830   11.7840   -6.6400 C   0  0  0  0  0  0  0  0  0  0  0  0
   -0.4520   10.8370   -7.7980 N   0  0  0  0  0  0  0  0  0  0  0  0
   -0.5630    9.4390   -7.3770 N   0  0  0  0  0  0  0  0  0  0  0  0
    0.7690   10.8830   -8.6180 C   0  0  0  0  0  0  0  0  0  0  0  0
   -1.9300    9.0770   -6.9960 C   0  0  0  0  0  0  0  0  0  0  0  0
    1.1330    9.4340   -8.8850 C   0  0  1  0  0  0  0  0  0  0  0  0
   -0.1320    8.6940   -8.5650 C   0  0  0  0  0  0  0  0  0  0  0  0
    1.5800    9.2410  -10.3090 C   0  0  0  0  0  0  0  0  0  0  0  0
    2.2470    8.2740  -10.6740 O   0  0  0  0  0  0  0  0  0  0  0  0
  2  1  1  1
  2  3  1  0
  2  4  1  0
  4  5  1  6
  3  6  1  0
  4  7  1  0
  6  7  1  0
  7  8  1  6
  5  9  1  0
  9 10  1  0
 10 11  1  0
 11 12  1  0
 11 13  1  0
 12 14  1  0
 13 15  1  0
 12 16  1  0
 15 16  1  0
 15 17  1  6
 17 18  2  0
M  END
>  <%Rank>  (346) 
26.335878

>  <N_hits>  (346) 
2

>  <submitter_name>  (346) 
nan

>  <original SMILES>  (346) 
nan

>  <∆G_unbound>  (346) 
0.31371

>  <∆G_bound>  (346) 
-4.205767

>  <regarded>  (346) 
6WOJ_0_D_γ,mArh-EU0860_0_A_α

>  <ref_pdb>  (346) 
nan

>  <smiles>  (346) 
CC1OCC(O)C1OCCN1CC(C=O)CN1C

>  <submitter_email>  (346) 
nan

>  <disregarded>  (346) 


>  <LE>  (346) 
-0.251082

>  <submitter_institution>  (346) 
nan

>  <ref_mols>  (346) 
6WOJ_0_D,mArh-EU0860_0_A

>  <N_constrained_atoms>  (346) 
16.0

>  <ref_url>  (346) 
nan

>  <method>  (346) 
nan

>  <comRMSD>  (346) 
0.46275

>  <N_unconstrained_atoms>  (346) 
2.0

>  <∆∆G>  (346) 
-4.519477

>  <runtime>  (346) 
34.243759

>  <generation_date>  (346) 
nan

$$$$
5CMS_0_J_β-mArh-x0724_0_A_α
     RDKit          3D

 26 27  0  0  0  0  0  0  0  0999 V2000
   -0.1910   21.3260   -7.5200 O   0  0  0  0  0  0  0  0  0  0  0  0
   -0.1470   19.6710   -7.8310 P   0  0  0  0  0  0  0  0  0  0  0  0
   -0.8300   19.3620   -6.5020 O   0  0  0  0  0  0  0  0  0  0  0  0
    1.0710   18.7160   -7.3460 O   0  0  0  0  0  0  0  0  0  0  0  0
   -1.2190   19.0740   -8.7920 O   0  0  0  0  0  0  0  0  0  0  0  0
   -1.6150   18.1950   -5.8830 P   0  0  0  0  0  0  0  0  0  0  0  0
   -0.3150   17.3160   -5.4250 O   0  0  0  0  0  0  0  0  0  0  0  0
   -2.3860   17.9410   -7.3120 O   0  0  0  0  0  0  0  0  0  0  0  0
   -2.3360   19.1950   -4.8530 O   0  0  0  0  0  0  0  0  0  0  0  0
   -0.2760   16.8710   -4.1040 C   0  0  0  0  0  0  0  0  0  0  0  0
   -1.4870   16.0910   -3.6750 C   0  0  0  0  0  0  0  0  0  0  0  0
   -1.2660   15.4910   -2.2910 C   0  0  0  0  0  0  0  0  0  0  0  0
   -2.5460   15.2710   -1.5290 C   0  0  0  0  0  0  0  0  0  0  0  0
   -2.5810   15.3430   -0.1490 C   0  0  0  0  0  0  0  0  0  0  0  0
   -3.7420   14.9920   -2.1610 C   0  0  0  0  0  0  0  0  0  0  0  0
   -3.7550   15.1550    0.5540 C   0  0  0  0  0  0  0  0  0  0  0  0
   -4.9160   14.8050   -1.4550 C   0  0  0  0  0  0  0  0  0  0  0  0
   -4.9550   14.8860   -0.0780 C   0  0  0  0  0  0  0  0  0  0  0  0
   -6.1710   14.7210    0.6520 N   0  0  0  0  0  0  0  0  0  0  0  0
   -7.3390   14.3440    0.1820 N   0  0  0  0  0  0  0  0  0  0  0  0
   -6.3560   14.9470    1.9570 C   0  0  0  0  0  0  0  0  0  0  0  0
   -7.6710   14.7250    2.3170 C   0  0  0  0  0  0  0  0  0  0  0  0
   -8.2800   14.3310    1.1470 C   0  0  0  0  0  0  0  0  0  0  0  0
   -8.2450   14.9050    3.6870 C   0  0  0  0  0  0  0  0  0  0  0  0
   -8.4120   13.6380    4.3720 N   0  0  0  0  0  0  0  0  0  0  0  0
   -8.5530   13.8210    5.7810 C   0  0  0  0  0  0  0  0  0  0  0  0
  1  2  1  0
  2  3  1  0
  2  4  1  0
  2  5  1  0
  3  6  1  0
  6  7  1  0
  6  8  1  0
  6  9  1  0
  7 10  1  0
 10 11  1  0
 11 12  1  0
 12 13  1  0
 13 14  2  0
 13 15  1  0
 14 16  1  0
 15 17  2  0
 16 18  2  0
 17 18  1  0
 18 19  1  0
 19 20  1  0
 19 21  1  0
 21 22  2  0
 20 23  2  0
 22 23  1  0
 22 24  1  0
 24 25  1  0
 25 26  1  0
M  CHG  2   4  -1   8  -1
M  END
>  <%Rank>  (347) 
26.412214

>  <N_hits>  (347) 
2

>  <submitter_name>  (347) 
nan

>  <original SMILES>  (347) 
nan

>  <∆G_unbound>  (347) 
0.501243

>  <∆G_bound>  (347) 
-10.255212

>  <regarded>  (347) 
5CMS_0_J_β,mArh-x0724_0_A_α

>  <ref_pdb>  (347) 
nan

>  <smiles>  (347) 
CNCc1cnn(-c2ccc(CCCO[PH]([O-])(O)O[PH]([O-])(O)O)cc2)c1

>  <submitter_email>  (347) 
nan

>  <disregarded>  (347) 


>  <LE>  (347) 
-0.41371

>  <submitter_institution>  (347) 
nan

>  <ref_mols>  (347) 
5CMS_0_J,mArh-x0724_0_A

>  <N_constrained_atoms>  (347) 
23.0

>  <ref_url>  (347) 
nan

>  <method>  (347) 
nan

>  <comRMSD>  (347) 
0.677024

>  <N_unconstrained_atoms>  (347) 
3.0

>  <∆∆G>  (347) 
-10.756455

>  <runtime>  (347) 
56.782238

>  <generation_date>  (347) 
nan

$$$$
mArh-EU0960_0_A_α-5CB5_0_E_β
     RDKit          3D

 31 32  0  0  0  0  0  0  0  0999 V2000
   -2.3820   10.2190   -5.0000 C   0  0  0  0  0  0  0  0  0  0  0  0
   -1.2540   10.4330   -5.9170 C   0  0  0  0  0  0  0  0  0  0  0  0
   -0.9410    9.7070   -7.0220 N   0  0  0  0  0  0  0  0  0  0  0  0
   -0.2850   11.4580   -5.7890 C   0  0  0  0  0  0  0  0  0  0  0  0
   -1.7430    8.6130   -7.5200 C   0  0  0  0  0  0  0  0  0  0  0  0
   -0.2340   12.4700   -4.7490 N   0  0  0  0  0  0  0  0  0  0  0  0
    0.5470   11.2410   -6.8420 C   0  0  0  0  0  0  0  0  0  0  0  0
    0.0640   10.2400   -7.6560 N   0  0  0  0  0  0  0  0  0  0  0  0
    1.6160   11.8180   -7.0820 O   0  0  0  0  0  0  0  0  0  0  0  0
    0.8440   12.2300   -3.4170 S   0  0  0  0  0  0  0  0  0  0  0  0
   -1.2800   13.4450   -4.4870 C   0  0  0  0  0  0  0  0  0  0  0  0
    0.8040    9.6450   -8.7140 C   0  0  0  0  0  0  0  0  0  0  0  0
    0.7660   10.7920   -3.0340 O   0  0  0  0  0  0  0  0  0  0  0  0
    0.4260   13.0080   -2.2360 O   0  0  0  0  0  0  0  0  0  0  0  0
    2.4890   12.6790   -3.9470 C   0  0  0  0  0  0  0  0  0  0  0  0
   -1.2510   14.6640   -5.3020 C   0  0  0  0  0  0  0  0  0  0  0  0
    1.2170   10.3300   -9.8410 C   0  0  0  0  0  0  0  0  0  0  0  0
    1.1510    8.3020   -8.6530 C   0  0  0  0  0  0  0  0  0  0  0  0
   -1.2860   16.0500   -4.7340 C   0  0  0  0  0  0  0  0  0  0  0  0
    1.9320    9.6880  -10.8350 C   0  0  0  0  0  0  0  0  0  0  0  0
    1.8570    7.6600   -9.6260 C   0  0  0  0  0  0  0  0  0  0  0  0
   -0.4960   16.9300   -5.4970 O   0  0  0  0  0  0  0  0  0  0  0  0
    2.2670    8.3430  -10.7460 C   0  0  0  0  0  0  0  0  0  0  0  0
   -1.3290   18.1350   -6.2560 P   0  0  0  0  0  0  0  0  0  0  0  0
   -0.6930   19.6020   -6.6240 O   0  0  0  0  0  0  0  0  0  0  0  0
   -2.0040   18.5950   -5.0060 O   0  0  0  0  0  0  0  0  0  0  0  0
   -2.8430   17.8040   -6.8050 O   0  0  0  0  0  0  0  0  0  0  0  0
   -0.2690   19.9660   -8.0640 P   0  0  0  0  0  0  0  0  0  0  0  0
   -1.6600   20.8220   -8.3350 O   0  0  0  0  0  0  0  0  0  0  0  0
    1.0590   20.7860   -7.4810 O   0  0  0  0  0  0  0  0  0  0  0  0
   -0.1210   18.4750   -8.6320 O   0  0  0  0  0  0  0  0  0  0  0  0
  1  2  1  0
  2  3  1  0
  2  4  2  0
  3  5  1  0
  4  6  1  0
  4  7  1  0
  3  8  1  0
  7  8  1  0
  7  9  2  0
 10  6  1  0
  6 11  1  0
  8 12  1  0
 10 13  2  0
 10 14  2  0
 10 15  1  0
 11 16  1  0
 12 17  2  0
 12 18  1  0
 16 19  1  0
 17 20  1  0
 18 21  2  0
 19 22  1  0
 20 23  2  0
 21 23  1  0
 22 24  1  0
 24 25  1  0
 24 26  1  0
 24 27  1  0
 25 28  1  0
 28 29  1  0
 28 30  1  0
 28 31  1  0
M  CHG  2  26  -1  30  -1
M  END
>  <%Rank>  (348) 
26.48855

>  <N_hits>  (348) 
2

>  <submitter_name>  (348) 
nan

>  <original SMILES>  (348) 
nan

>  <∆G_unbound>  (348) 
3.334027

>  <∆G_bound>  (348) 
-10.241008

>  <regarded>  (348) 
mArh-EU0960_0_A_α,5CB5_0_E_β

>  <ref_pdb>  (348) 
nan

>  <smiles>  (348) 
Cc1c(N(CCCO[PH]([O-])(O)O[PH]([O-])(O)O)S(C)(=O)=O)c(=O)n(-c2ccccc2)n1C

>  <submitter_email>  (348) 
nan

>  <disregarded>  (348) 


>  <LE>  (348) 
-0.437904

>  <submitter_institution>  (348) 
nan

>  <ref_mols>  (348) 
mArh-EU0960_0_A,5CB5_0_E

>  <N_constrained_atoms>  (348) 
28.0

>  <ref_url>  (348) 
nan

>  <method>  (348) 
nan

>  <comRMSD>  (348) 
0.773948

>  <N_unconstrained_atoms>  (348) 
3.0

>  <∆∆G>  (348) 
-13.575034

>  <runtime>  (348) 
38.224598

>  <generation_date>  (348) 
nan

$$$$
mArh-5cms_P_15_P_β-5CMS_0_D_β
     RDKit          3D

 16 16  0  0  0  0  0  0  0  0999 V2000
   -1.1320   20.6190   -8.5570 O   0  0  0  0  0  0  0  0  0  0  0  0
   -0.2140   19.6560   -7.7000 P   0  0  0  0  0  0  0  0  0  0  0  0
   -1.1560   19.3120   -6.4900 O   0  0  0  0  0  0  0  0  0  0  0  0
    1.1030   20.2280   -7.3690 O   0  0  0  0  0  0  0  0  0  0  0  0
   -0.1430   18.3930   -8.6630 O   0  0  0  0  0  0  0  0  0  0  0  0
   -1.6000   17.8740   -6.0250 P   0  0  2  0  0  0  0  0  0  0  0  0
   -0.3430   16.8990   -5.7520 O   0  0  0  0  0  0  0  0  0  0  0  0
   -2.7540   17.3110   -6.7550 O   0  0  0  0  0  0  0  0  0  0  0  0
   -1.9440   18.2280   -4.5240 O   0  0  0  0  0  0  0  0  0  0  0  0
   -0.6100   15.8350   -4.8350 C   0  0  2  0  0  0  0  0  0  0  0  0
    0.0260   15.9200   -3.5470 O   0  0  0  0  0  0  0  0  0  0  0  0
   -0.2830   14.3910   -5.2460 C   0  0  1  0  0  0  0  0  0  0  0  0
    1.1130   14.0360   -5.2490 O   0  0  0  0  0  0  0  0  0  0  0  0
   -0.2940   14.6510   -2.9220 C   0  0  0  0  0  0  0  0  0  0  0  0
   -0.9000   13.7670   -4.0220 C   0  0  2  0  0  0  0  0  0  0  0  0
   -0.5760   12.3940   -3.9300 O   0  0  0  0  0  0  0  0  0  0  0  0
  1  2  1  0
  2  3  1  0
  2  4  2  0
  2  5  1  0
  3  6  1  0
  6  7  1  0
  6  8  2  0
  6  9  1  1
 10  7  1  6
 10 11  1  0
 10 12  1  0
 12 13  1  1
 11 14  1  0
 12 15  1  0
 14 15  1  0
 15 16  1  1
M  END
>  <%Rank>  (349) 
26.564885

>  <N_hits>  (349) 
2

>  <submitter_name>  (349) 
nan

>  <original SMILES>  (349) 
nan

>  <∆G_unbound>  (349) 
1.157846

>  <∆G_bound>  (349) 
-7.633157

>  <regarded>  (349) 
mArh-5cms_P_15_P_β,5CMS_0_D_β

>  <ref_pdb>  (349) 
nan

>  <smiles>  (349) 
O=P(O)(O)OP(=O)(O)OC1OCC(O)C1O

>  <submitter_email>  (349) 
nan

>  <disregarded>  (349) 


>  <LE>  (349) 
-0.549438

>  <submitter_institution>  (349) 
nan

>  <ref_mols>  (349) 
mArh-5cms_P_15_P,5CMS_0_D

>  <N_constrained_atoms>  (349) 
16.0

>  <ref_url>  (349) 
nan

>  <method>  (349) 
nan

>  <comRMSD>  (349) 
0.677093

>  <N_unconstrained_atoms>  (349) 
0.0

>  <∆∆G>  (349) 
-8.791003

>  <runtime>  (349) 
26.779615

>  <generation_date>  (349) 
nan

$$$$
mArh-5cms_B_1_B_β-mArh-x0681_0_A_α
     RDKit          3D

 24 25  0  0  0  0  0  0  0  0999 V2000
   -1.5320   20.7000   -8.8270 O   0  0  0  0  0  0  0  0  0  0  0  0
   -0.4600   19.9950   -7.8900 P   0  0  0  0  0  0  0  0  0  0  0  0
   -1.2810   19.6460   -6.5730 O   0  0  0  0  0  0  0  0  0  0  0  0
    0.7980   20.7570   -7.6930 O   0  0  0  0  0  0  0  0  0  0  0  0
   -0.2210   18.6430   -8.7030 O   0  0  0  0  0  0  0  0  0  0  0  0
   -1.6100   18.1490   -6.2450 P   0  0  2  0  0  0  0  0  0  0  0  0
   -0.2030   17.5230   -6.6430 O   0  0  0  0  0  0  0  0  0  0  0  0
   -2.7250   17.5780   -7.0010 O   0  0  0  0  0  0  0  0  0  0  0  0
   -1.6030   17.8500   -4.7040 O   0  0  0  0  0  0  0  0  0  0  0  0
   -0.6960   16.7760   -4.4260 C   0  0  0  0  0  0  0  0  0  0  0  0
   -1.4240   15.4780   -4.0620 C   0  0  0  0  0  0  0  0  0  0  0  0
   -2.9390   15.5160   -4.2750 C   0  0  0  0  0  0  0  0  0  0  0  0
   -3.7180   15.3990   -3.0580 N   0  0  0  0  0  0  0  0  0  0  0  0
   -3.2540   14.8110   -1.9120 C   0  0  0  0  0  0  0  0  0  0  0  0
   -2.1680   14.2390   -1.8590 O   0  0  0  0  0  0  0  0  0  0  0  0
   -4.2250   14.9380   -0.7440 C   0  0  1  0  0  0  0  0  0  0  0  0
   -4.9650   13.6470   -0.5770 C   0  0  0  0  0  0  0  0  0  0  0  0
   -3.6000   15.4580    0.5690 C   0  0  0  0  0  0  0  0  0  0  0  0
   -5.6540   13.4200    0.5510 N   0  0  0  0  0  0  0  0  0  0  0  0
   -4.2780   14.9480    1.8390 C   0  0  0  0  0  0  0  0  0  0  0  0
   -5.0750   12.6280   -1.4080 N   0  0  0  0  0  0  0  0  0  0  0  0
   -5.6810   14.3850    1.5980 C   0  0  0  0  0  0  0  0  0  0  0  0
   -6.2520   12.2060    0.4810 C   0  0  0  0  0  0  0  0  0  0  0  0
   -5.8810   11.7240   -0.7520 C   0  0  0  0  0  0  0  0  0  0  0  0
  1  2  1  0
  2  3  1  0
  2  4  2  0
  2  5  1  0
  3  6  1  0
  6  7  1  6
  6  8  2  0
  6  9  1  0
  9 10  1  0
 10 11  1  0
 11 12  1  0
 12 13  1  0
 13 14  1  0
 14 15  2  0
 16 14  1  6
 16 17  1  0
 16 18  1  0
 17 19  1  0
 18 20  1  0
 17 21  2  0
 19 22  1  0
 20 22  1  0
 19 23  1  0
 21 24  1  0
 23 24  2  0
M  END
>  <%Rank>  (350) 
26.641221

>  <N_hits>  (350) 
2

>  <submitter_name>  (350) 
nan

>  <original SMILES>  (350) 
nan

>  <∆G_unbound>  (350) 
3.337131

>  <∆G_bound>  (350) 
-10.517024

>  <regarded>  (350) 
mArh-5cms_B_1_B_β,mArh-x0681_0_A_α

>  <ref_pdb>  (350) 
nan

>  <smiles>  (350) 
O=C(NCCCOP(=O)(O)OP(=O)(O)O)C1CCCn2ccnc21

>  <submitter_email>  (350) 
nan

>  <disregarded>  (350) 


>  <LE>  (350) 
-0.577256

>  <submitter_institution>  (350) 
nan

>  <ref_mols>  (350) 
mArh-5cms_B_1_B,mArh-x0681_0_A

>  <N_constrained_atoms>  (350) 
21.0

>  <ref_url>  (350) 
nan

>  <method>  (350) 
nan

>  <comRMSD>  (350) 
0.72122

>  <N_unconstrained_atoms>  (350) 
3.0

>  <∆∆G>  (350) 
-13.854155

>  <runtime>  (350) 
27.714611

>  <generation_date>  (350) 
nan

$$$$
mArh-EU0342_0_A_α-mArh-x0104_0_A_β
     RDKit          3D

 13 13  0  0  0  0  0  0  0  0999 V2000
    0.4160   14.8370   -0.0240 C   0  0  0  0  0  0  0  0  0  0  0  0
   -0.9610   14.8880   -0.3900 N   0  0  0  0  0  0  0  0  0  0  0  0
   -1.9070   14.8120    0.5920 C   0  0  0  0  0  0  0  0  0  0  0  0
   -1.6620   14.6640    1.7820 O   0  0  0  0  0  0  0  0  0  0  0  0
   -3.3100   14.9160    0.0960 C   0  0  0  0  0  0  0  0  0  0  0  0
   -4.2020   14.9440    1.0860 C   0  0  0  0  0  0  0  0  0  0  0  0
   -3.7690   14.9820   -1.3060 C   0  0  0  0  0  0  0  0  0  0  0  0
   -5.5480   15.0240    0.8370 N   0  0  0  0  0  0  0  0  0  0  0  0
   -5.0810   15.0800   -1.5510 C   0  0  0  0  0  0  0  0  0  0  0  0
   -2.8360   14.9450   -2.4830 C   0  0  0  0  0  0  0  0  0  0  0  0
   -6.4020   14.7690    1.9390 N   0  0  0  0  0  0  0  0  0  0  0  0
   -6.0780   15.1120   -0.4550 C   0  0  0  0  0  0  0  0  0  0  0  0
   -7.2730   15.2080   -0.7170 O   0  0  0  0  0  0  0  0  0  0  0  0
  1  2  1  0
  2  3  1  0
  3  4  2  0
  3  5  1  0
  5  6  2  0
  5  7  1  0
  6  8  1  0
  7  9  2  0
  7 10  1  0
  8 11  1  0
  8 12  1  0
  9 12  1  0
 12 13  2  0
M  END
>  <%Rank>  (351) 
26.717557

>  <N_hits>  (351) 
2

>  <submitter_name>  (351) 
nan

>  <original SMILES>  (351) 
nan

>  <∆G_unbound>  (351) 
0.221876

>  <∆G_bound>  (351) 
-7.076761

>  <regarded>  (351) 
mArh-EU0342_0_A_α,mArh-x0104_0_A_β

>  <ref_pdb>  (351) 
nan

>  <smiles>  (351) 
CNC(=O)c1cn(N)c(=O)cc1C

>  <submitter_email>  (351) 
nan

>  <disregarded>  (351) 


>  <LE>  (351) 
-0.561434

>  <submitter_institution>  (351) 
nan

>  <ref_mols>  (351) 
mArh-EU0342_0_A,mArh-x0104_0_A

>  <N_constrained_atoms>  (351) 
13.0

>  <ref_url>  (351) 
nan

>  <method>  (351) 
nan

>  <comRMSD>  (351) 
0.609344

>  <N_unconstrained_atoms>  (351) 
0.0

>  <∆∆G>  (351) 
-7.298636

>  <runtime>  (351) 
27.438901

>  <generation_date>  (351) 
nan

$$$$
mArh-x1015_0_A_α-4IQY_0_B_β
     RDKit          3D

 27 28  0  0  0  0  0  0  0  0999 V2000
   -1.6170   13.8350   -3.3160 C   0  0  0  0  0  0  0  0  0  0  0  0
   -0.3040   13.4740   -3.8150 C   0  0  2  0  0  0  0  0  0  0  0  0
   -0.0410   12.0440   -4.0920 N   0  0  0  0  0  0  0  0  0  0  0  0
    0.7870   13.6440   -2.6820 C   0  0  0  0  0  0  0  0  0  0  0  0
    1.0550   14.7450   -2.3580 N   0  0  0  0  0  0  0  0  0  0  0  0
    0.2310   11.4760   -2.7800 C   0  0  0  0  0  0  0  0  0  0  0  0
    1.2420   12.3390   -2.2780 N   0  0  0  0  0  0  0  0  0  0  0  0
   -0.4500   11.2860   -5.1540 C   0  0  0  0  0  0  0  0  0  0  0  0
   -0.3050   10.4770   -2.3040 O   0  0  0  0  0  0  0  0  0  0  0  0
    0.3180   15.8540   -3.0350 C   0  0  0  0  0  0  0  0  0  0  0  0
    0.0450   11.4410   -6.4170 C   0  0  0  0  0  0  0  0  0  0  0  0
   -1.4160   10.2990   -5.0020 C   0  0  0  0  0  0  0  0  0  0  0  0
    1.0400   16.0060   -4.3370 C   0  0  0  0  0  0  0  0  0  0  0  0
   -0.3470   10.6970   -7.5110 C   0  0  0  0  0  0  0  0  0  0  0  0
   -1.8340    9.5330   -6.0780 C   0  0  0  0  0  0  0  0  0  0  0  0
    0.6650   16.9560   -5.3420 C   0  0  0  0  0  0  0  0  0  0  0  0
   -1.2950    9.7310   -7.3550 C   0  0  0  0  0  0  0  0  0  0  0  0
   -1.8410    8.7550   -8.6780 Cl  0  0  0  0  0  0  0  0  0  0  0  0
   -0.6080   16.6710   -5.8190 O   0  0  0  0  0  0  0  0  0  0  0  0
   -1.5960   18.0560   -6.0050 P   0  0  0  0  0  0  0  0  0  0  0  0
   -0.5760   18.9730   -6.5420 O   0  0  0  0  0  0  0  0  0  0  0  0
   -1.8210   18.9710   -4.6430 O   0  0  0  0  0  0  0  0  0  0  0  0
   -2.6560   18.1100   -7.1570 O   0  0  0  0  0  0  0  0  0  0  0  0
   -0.4330   19.6670   -7.9300 P   0  0  0  0  0  0  0  0  0  0  0  0
   -1.9440   20.3550   -7.8330 O   0  0  0  0  0  0  0  0  0  0  0  0
    0.8830   20.5180   -7.3830 O   0  0  0  0  0  0  0  0  0  0  0  0
   -0.2260   18.3910   -8.8050 O   0  0  0  0  0  0  0  0  0  0  0  0
  2  1  1  1
  2  3  1  0
  2  4  1  0
  4  5  2  3
  3  6  1  0
  4  7  1  0
  6  7  1  0
  3  8  1  0
  6  9  2  0
  5 10  1  0
  8 11  2  0
  8 12  1  0
 10 13  1  0
 11 14  1  0
 12 15  2  0
 13 16  1  0
 14 17  2  0
 15 17  1  0
 17 18  1  0
 16 19  1  0
 19 20  1  0
 20 21  1  0
 20 22  1  0
 20 23  1  0
 21 24  1  0
 24 25  1  0
 24 26  1  0
 24 27  1  0
M  CHG  2  22  -1  26  -1
M  END
>  <%Rank>  (352) 
26.793893

>  <N_hits>  (352) 
2

>  <submitter_name>  (352) 
nan

>  <original SMILES>  (352) 
nan

>  <∆G_unbound>  (352) 
1.43531

>  <∆G_bound>  (352) 
-8.368399

>  <regarded>  (352) 
mArh-x1015_0_A_α,4IQY_0_B_β

>  <ref_pdb>  (352) 
nan

>  <smiles>  (352) 
CC1C(=NCCCO[PH]([O-])(O)O[PH]([O-])(O)O)NC(=O)N1c1ccc(Cl)cc1

>  <submitter_email>  (352) 
nan

>  <disregarded>  (352) 


>  <LE>  (352) 
-0.3631

>  <submitter_institution>  (352) 
nan

>  <ref_mols>  (352) 
mArh-x1015_0_A,4IQY_0_B

>  <N_constrained_atoms>  (352) 
24.0

>  <ref_url>  (352) 
nan

>  <method>  (352) 
nan

>  <comRMSD>  (352) 
0.675142

>  <N_unconstrained_atoms>  (352) 
3.0

>  <∆∆G>  (352) 
-9.803709

>  <runtime>  (352) 
36.070699

>  <generation_date>  (352) 
nan

$$$$
mArh-5cb5_D_0_D_β-mArh-5cb5_I_0_I_γ
     RDKit          3D

 16 16  0  0  0  0  0  0  0  0999 V2000
   -1.4210   20.6420   -8.6690 O   0  0  0  0  0  0  0  0  0  0  0  0
   -0.2410   19.9210   -7.8830 P   0  0  0  0  0  0  0  0  0  0  0  0
   -0.8440   19.5640   -6.4770 O   0  0  0  0  0  0  0  0  0  0  0  0
    0.9780   20.7490   -7.8140 O   0  0  0  0  0  0  0  0  0  0  0  0
   -0.1000   18.5600   -8.7140 O   0  0  0  0  0  0  0  0  0  0  0  0
   -1.5490   18.2220   -6.0410 P   0  0  2  0  0  0  0  0  0  0  0  0
   -0.4180   17.1570   -5.5910 O   0  0  0  0  0  0  0  0  0  0  0  0
   -2.6490   17.7440   -6.9090 O   0  0  0  0  0  0  0  0  0  0  0  0
   -2.0670   18.8080   -4.6570 O   0  0  0  0  0  0  0  0  0  0  0  0
   -0.7510   16.1140   -4.6670 C   0  0  2  0  0  0  0  0  0  0  0  0
    0.0400   16.1160   -3.4650 O   0  0  0  0  0  0  0  0  0  0  0  0
   -0.5960   14.6650   -5.1540 C   0  0  1  0  0  0  0  0  0  0  0  0
    0.7470   14.2600   -5.5020 O   0  0  0  0  0  0  0  0  0  0  0  0
   -0.1850   14.8230   -2.8520 C   0  0  0  0  0  0  0  0  0  0  0  0
   -0.9580   13.9770   -3.8610 C   0  0  2  0  0  0  0  0  0  0  0  0
   -0.5890   12.6110   -3.8870 O   0  0  0  0  0  0  0  0  0  0  0  0
  1  2  1  0
  2  3  1  0
  2  4  2  0
  2  5  1  0
  3  6  1  0
  6  7  1  0
  6  8  2  0
  6  9  1  1
 10  7  1  6
 10 11  1  0
 10 12  1  0
 12 13  1  1
 11 14  1  0
 12 15  1  0
 14 15  1  0
 15 16  1  6
M  END
>  <%Rank>  (353) 
26.870229

>  <N_hits>  (353) 
2

>  <submitter_name>  (353) 
nan

>  <original SMILES>  (353) 
nan

>  <∆G_unbound>  (353) 
1.157846

>  <∆G_bound>  (353) 
-7.997949

>  <regarded>  (353) 
mArh-5cb5_D_0_D_β,mArh-5cb5_I_0_I_γ

>  <ref_pdb>  (353) 
nan

>  <smiles>  (353) 
O=P(O)(O)OP(=O)(O)OC1OCC(O)C1O

>  <submitter_email>  (353) 
nan

>  <disregarded>  (353) 


>  <LE>  (353) 
-0.572237

>  <submitter_institution>  (353) 
nan

>  <ref_mols>  (353) 
mArh-5cb5_D_0_D,mArh-5cb5_I_0_I

>  <N_constrained_atoms>  (353) 
16.0

>  <ref_url>  (353) 
nan

>  <method>  (353) 
nan

>  <comRMSD>  (353) 
0.691942

>  <N_unconstrained_atoms>  (353) 
0.0

>  <∆∆G>  (353) 
-9.155794

>  <runtime>  (353) 
30.09666

>  <generation_date>  (353) 
nan

$$$$
5CB5_0_L_γ-mArh-5cms_F_6_F_β
     RDKit          3D

 16 16  0  0  0  0  0  0  0  0999 V2000
   -1.0440   12.5570   -3.9720 O   0  0  0  0  0  0  0  0  0  0  0  0
   -0.1030   13.6110   -3.9010 C   0  0  2  0  0  0  0  0  0  0  0  0
   -0.4410   14.6620   -2.8470 C   0  0  0  0  0  0  0  0  0  0  0  0
   -0.0130   14.3990   -5.2040 C   0  0  2  0  0  0  0  0  0  0  0  0
    1.3680   14.3330   -5.5630 O   0  0  0  0  0  0  0  0  0  0  0  0
   -0.0670   15.9220   -3.4160 O   0  0  0  0  0  0  0  0  0  0  0  0
   -0.4920   15.7970   -4.7730 C   0  0  1  0  0  0  0  0  0  0  0  0
   -0.0350   17.0410   -5.5280 C   0  0  0  0  0  0  0  0  0  0  0  0
   -1.4180   18.1020   -6.0150 P   0  0  1  0  0  0  0  0  0  0  0  0
   -0.8990   19.4860   -6.5700 O   0  0  0  0  0  0  0  0  0  0  0  0
   -2.4760   17.4500   -6.8510 O   0  0  0  0  0  0  0  0  0  0  0  0
   -1.9950   18.5590   -4.6120 O   0  0  0  0  0  0  0  0  0  0  0  0
   -0.2900   19.9960   -7.9120 P   0  0  0  0  0  0  0  0  0  0  0  0
   -1.5530   20.5640   -8.6890 O   0  0  0  0  0  0  0  0  0  0  0  0
    0.8340   20.9570   -7.8520 O   0  0  0  0  0  0  0  0  0  0  0  0
   -0.0120   18.6900   -8.7920 O   0  0  0  0  0  0  0  0  0  0  0  0
  2  1  1  6
  2  3  1  0
  2  4  1  0
  4  5  1  1
  3  6  1  0
  4  7  1  0
  6  7  1  0
  7  8  1  6
  8  9  1  0
  9 10  1  0
  9 11  2  0
  9 12  1  1
 10 13  1  0
 13 14  1  0
 13 15  2  0
 13 16  1  0
M  END
>  <%Rank>  (354) 
26.946565

>  <N_hits>  (354) 
2

>  <submitter_name>  (354) 
nan

>  <original SMILES>  (354) 
nan

>  <∆G_unbound>  (354) 
1.057928

>  <∆G_bound>  (354) 
-9.178244

>  <regarded>  (354) 
5CB5_0_L_γ,mArh-5cms_F_6_F_β

>  <ref_pdb>  (354) 
nan

>  <smiles>  (354) 
O=P(O)(O)OP(=O)(O)CC1OCC(O)C1O

>  <submitter_email>  (354) 
nan

>  <disregarded>  (354) 


>  <LE>  (354) 
-0.639761

>  <submitter_institution>  (354) 
nan

>  <ref_mols>  (354) 
5CB5_0_L,mArh-5cms_F_6_F

>  <N_constrained_atoms>  (354) 
16.0

>  <ref_url>  (354) 
nan

>  <method>  (354) 
nan

>  <comRMSD>  (354) 
0.727122

>  <N_unconstrained_atoms>  (354) 
0.0

>  <∆∆G>  (354) 
-10.236172

>  <runtime>  (354) 
37.497254

>  <generation_date>  (354) 
nan

$$$$
3VFQ_0_A_δ-5CB5_0_P_γ
     RDKit          3D

 21 23  0  0  0  0  0  0  0  0999 V2000
   -6.5600   15.2580    3.0980 N   0  0  0  0  0  0  0  0  0  0  0  0
   -5.4840   14.8390    2.2250 C   0  0  1  0  0  0  0  0  0  0  0  0
   -5.6470   14.9980    0.7550 C   0  0  1  0  0  0  0  0  0  0  0  0
   -4.2550   15.4790    2.5840 N   0  0  0  0  0  0  0  0  0  0  0  0
   -4.5990   14.0600    0.2570 C   0  0  1  0  0  0  0  0  0  0  0  0
   -6.8440   14.5920    0.0330 N   0  0  0  0  0  0  0  0  0  0  0  0
   -3.1370   14.7260    2.0150 C   0  0  0  0  0  0  0  0  0  0  0  0
   -4.8640   14.0950   -1.1640 N   0  0  0  0  0  0  0  0  0  0  0  0
   -6.2660   14.5370   -1.3090 C   0  0  0  0  0  0  0  0  0  0  0  0
   -3.2710   14.5280    0.5910 N   0  0  0  0  0  0  0  0  0  0  0  0
   -4.5790   12.8360   -1.8670 C   0  0  0  0  0  0  0  0  0  0  0  0
   -3.0950   12.6820   -2.2440 C   0  0  0  0  0  0  0  0  0  0  0  0
   -2.8580   12.9860   -3.7240 C   0  0  0  0  0  0  0  0  0  0  0  0
   -1.5140   12.6430   -4.0880 O   0  0  0  0  0  0  0  0  0  0  0  0
   -0.5190   13.6180   -3.7160 C   0  0  2  0  0  0  0  0  0  0  0  0
   -1.0780   14.8510   -3.0360 C   0  0  0  0  0  0  0  0  0  0  0  0
    0.0950   14.2390   -4.9690 C   0  0  2  0  0  0  0  0  0  0  0  0
    1.1150   13.4020   -5.4960 O   0  0  0  0  0  0  0  0  0  0  0  0
   -0.1270   15.9000   -3.2700 O   0  0  0  0  0  0  0  0  0  0  0  0
    0.5930   15.6100   -4.4800 C   0  0  2  0  0  0  0  0  0  0  0  0
    0.4260   16.8090   -5.4100 C   0  0  0  0  0  0  0  0  0  0  0  0
  2  1  1  1
  2  3  1  0
  2  4  1  0
  3  5  1  0
  3  6  1  6
  4  7  1  0
  5  8  1  0
  6  9  1  0
  8  9  1  0
  5 10  1  6
  7 10  1  0
  8 11  1  0
 11 12  1  0
 12 13  1  0
 13 14  1  0
 15 14  1  6
 15 16  1  0
 15 17  1  0
 17 18  1  1
 16 19  1  0
 17 20  1  0
 19 20  1  0
 20 21  1  6
M  END
>  <%Rank>  (355) 
27.022901

>  <N_hits>  (355) 
2

>  <submitter_name>  (355) 
nan

>  <original SMILES>  (355) 
nan

>  <∆G_unbound>  (355) 
0.395967

>  <∆G_bound>  (355) 
-1.72015

>  <regarded>  (355) 
3VFQ_0_A_δ,5CB5_0_P_γ

>  <ref_pdb>  (355) 
nan

>  <smiles>  (355) 
CC1OCC(OCCCN2CNC3C(N)NCNC32)C1O

>  <submitter_email>  (355) 
nan

>  <disregarded>  (355) 


>  <LE>  (355) 
-0.100767

>  <submitter_institution>  (355) 
nan

>  <ref_mols>  (355) 
3VFQ_0_A,5CB5_0_P

>  <N_constrained_atoms>  (355) 
18.0

>  <ref_url>  (355) 
nan

>  <method>  (355) 
nan

>  <comRMSD>  (355) 
0.418618

>  <N_unconstrained_atoms>  (355) 
3.0

>  <∆∆G>  (355) 
-2.116117

>  <runtime>  (355) 
27.094543

>  <generation_date>  (355) 
nan

$$$$
5CMS_0_K_β-mArh-x0864_0_A_α
     RDKit          3D

 24 24  0  0  0  0  0  0  0  0999 V2000
   -1.9700   20.6460   -8.2120 O   0  0  0  0  0  0  0  0  0  0  0  0
   -0.5260   19.9680   -8.0710 P   0  0  0  0  0  0  0  0  0  0  0  0
   -0.6580   19.4940   -6.6220 O   0  0  0  0  0  0  0  0  0  0  0  0
    0.7790   20.9310   -7.5960 O   0  0  0  0  0  0  0  0  0  0  0  0
   -0.1280   18.5320   -8.7280 O   0  0  0  0  0  0  0  0  0  0  0  0
   -1.7710   18.4390   -6.0100 P   0  0  0  0  0  0  0  0  0  0  0  0
   -1.1330   17.1010   -5.2550 O   0  0  0  0  0  0  0  0  0  0  0  0
   -1.8370   17.7020   -7.3030 O   0  0  0  0  0  0  0  0  0  0  0  0
   -1.9090   19.1770   -4.6940 O   0  0  0  0  0  0  0  0  0  0  0  0
   -1.9790   16.0610   -4.9810 C   0  0  0  0  0  0  0  0  0  0  0  0
   -1.1600   14.7790   -5.2870 C   0  0  0  0  0  0  0  0  0  0  0  0
   -0.6750   14.0520   -4.0580 C   0  0  0  0  0  0  0  0  0  0  0  0
    0.2740   12.9430   -4.4230 C   0  0  1  0  0  0  0  0  0  0  0  0
    0.7030   12.2840   -3.1650 C   0  0  0  0  0  0  0  0  0  0  0  0
   -0.3290   11.9330   -5.2800 N   0  0  0  0  0  0  0  0  0  0  0  0
    0.4590   10.9300   -2.9330 O   0  0  0  0  0  0  0  0  0  0  0  0
    1.3020   12.9150   -2.2450 O   0  0  0  0  0  0  0  0  0  0  0  0
   -1.4390   11.2720   -4.8970 C   0  0  0  0  0  0  0  0  0  0  0  0
    0.3510   11.4470   -6.3380 C   0  0  0  0  0  0  0  0  0  0  0  0
    1.4410   11.9990   -6.6670 O   0  0  0  0  0  0  0  0  0  0  0  0
   -1.8900   10.1710   -5.5940 C   0  0  0  0  0  0  0  0  0  0  0  0
   -0.0760   10.3650   -7.0850 C   0  0  0  0  0  0  0  0  0  0  0  0
   -1.2310    9.6930   -6.7150 C   0  0  0  0  0  0  0  0  0  0  0  0
   -1.8600    8.2040   -7.6980 Br  0  0  0  0  0  0  0  0  0  0  0  0
  1  2  1  0
  2  3  1  0
  2  4  1  0
  2  5  1  0
  3  6  1  0
  6  7  1  0
  6  8  1  0
  6  9  1  0
  7 10  1  0
 10 11  1  0
 11 12  1  0
 13 12  1  1
 13 14  1  0
 13 15  1  0
 14 16  1  0
 14 17  2  0
 15 18  1  0
 15 19  1  0
 19 20  2  0
 18 21  2  0
 19 22  1  0
 21 23  1  0
 22 23  2  0
 23 24  1  0
M  CHG  2   4  -1   8  -1
M  END
>  <%Rank>  (356) 
27.099237

>  <N_hits>  (356) 
2

>  <submitter_name>  (356) 
nan

>  <original SMILES>  (356) 
nan

>  <∆G_unbound>  (356) 
2.073516

>  <∆G_bound>  (356) 
-5.579079

>  <regarded>  (356) 
5CMS_0_K_β,mArh-x0864_0_A_α

>  <ref_pdb>  (356) 
nan

>  <smiles>  (356) 
O=C(O)C(CCCO[PH]([O-])(O)O[PH]([O-])(O)O)n1ccc(Br)cc1=O

>  <submitter_email>  (356) 
nan

>  <disregarded>  (356) 


>  <LE>  (356) 
-0.318858

>  <submitter_institution>  (356) 
nan

>  <ref_mols>  (356) 
5CMS_0_K,mArh-x0864_0_A

>  <N_constrained_atoms>  (356) 
21.0

>  <ref_url>  (356) 
nan

>  <method>  (356) 
nan

>  <comRMSD>  (356) 
0.597595

>  <N_unconstrained_atoms>  (356) 
3.0

>  <∆∆G>  (356) 
-7.652595

>  <runtime>  (356) 
45.827637

>  <generation_date>  (356) 
nan

$$$$
mArh-x1012_0_A_α-mArh-x0962_3_A_α
     RDKit          3D

 22 23  0  0  0  0  0  0  0  0999 V2000
   -0.3120   18.2620   -4.7850 N   0  0  0  0  0  0  0  0  0  0  0  0
   -1.1890   17.2420   -4.7840 C   0  0  0  0  0  0  0  0  0  0  0  0
   -2.3850   17.4940   -4.7370 O   0  0  0  0  0  0  0  0  0  0  0  0
   -0.6480   15.9790   -4.8090 N   0  0  0  0  0  0  0  0  0  0  0  0
   -1.4230   14.7570   -4.9850 C   0  0  0  0  0  0  0  0  0  0  0  0
    0.7900   15.8100   -4.5940 C   0  0  0  0  0  0  0  0  0  0  0  0
   -1.1100   13.7170   -3.9200 C   0  0  0  0  0  0  0  0  0  0  0  0
    1.0520   14.8920   -3.3940 C   0  0  0  0  0  0  0  0  0  0  0  0
    0.3770   13.5280   -3.6140 C   0  0  0  0  0  0  0  0  0  0  0  0
    0.5900   12.5380   -2.4550 C   0  0  0  0  0  0  0  0  0  0  0  0
    0.7120   11.2320   -2.8720 O   0  0  0  0  0  0  0  0  0  0  0  0
    0.6420   12.8540   -1.2730 O   0  0  0  0  0  0  0  0  0  0  0  0
    0.4900   10.8730   -4.2560 C   0  0  0  0  0  0  0  0  0  0  0  0
    0.9700   11.9750   -5.2010 C   0  0  0  0  0  0  0  0  0  0  0  0
    1.5690   11.4490   -6.5020 C   0  0  0  0  0  0  0  0  0  0  0  0
    0.5380   11.2370   -7.6250 C   0  0  1  0  0  0  0  0  0  0  0  0
    1.1760   11.1710   -8.9230 N   0  0  0  0  0  0  0  0  0  0  0  0
   -0.2320    9.9950   -7.5210 C   0  0  0  0  0  0  0  0  0  0  0  0
    0.1090    8.8370   -8.1790 N   0  0  0  0  0  0  0  0  0  0  0  0
   -1.3690    9.6900   -6.8280 C   0  0  0  0  0  0  0  0  0  0  0  0
   -0.8220    7.8990   -7.8590 C   0  0  0  0  0  0  0  0  0  0  0  0
   -1.7300    8.3920   -7.0420 N   0  0  0  0  0  0  0  0  0  0  0  0
  1  2  1  0
  2  3  2  0
  2  4  1  0
  4  5  1  0
  4  6  1  0
  5  7  1  0
  6  8  1  0
  7  9  1  0
  8  9  1  0
  9 10  1  0
 10 11  1  0
 10 12  2  0
 11 13  1  0
 13 14  1  0
 14 15  1  0
 15 16  1  0
 16 17  1  6
 16 18  1  0
 18 19  1  0
 18 20  2  0
 19 21  1  0
 20 22  1  0
 21 22  2  0
M  END
>  <%Rank>  (357) 
27.175573

>  <N_hits>  (357) 
2

>  <submitter_name>  (357) 
nan

>  <original SMILES>  (357) 
nan

>  <∆G_unbound>  (357) 
0.350354

>  <∆G_bound>  (357) 
-6.194116

>  <regarded>  (357) 
mArh-x1012_0_A_α,mArh-x0962_3_A_α

>  <ref_pdb>  (357) 
nan

>  <smiles>  (357) 
NC(=O)N1CCC(C(=O)OCCCC(N)c2cnc[nH]2)CC1

>  <submitter_email>  (357) 
nan

>  <disregarded>  (357) 


>  <LE>  (357) 
-0.297476

>  <submitter_institution>  (357) 
nan

>  <ref_mols>  (357) 
mArh-x1012_0_A,mArh-x0962_3_A

>  <N_constrained_atoms>  (357) 
19.0

>  <ref_url>  (357) 
nan

>  <method>  (357) 
nan

>  <comRMSD>  (357) 
0.541978

>  <N_unconstrained_atoms>  (357) 
3.0

>  <∆∆G>  (357) 
-6.54447

>  <runtime>  (357) 
53.441046

>  <generation_date>  (357) 
nan

$$$$
mArh-5cms_B_1_B_β-mArh-5cb5_L_0_L_γ
     RDKit          3D

 16 16  0  0  0  0  0  0  0  0999 V2000
   -1.5280   20.4550   -8.5520 O   0  0  0  0  0  0  0  0  0  0  0  0
   -0.3270   19.7660   -7.7670 P   0  0  0  0  0  0  0  0  0  0  0  0
   -0.9630   19.3480   -6.3840 O   0  0  0  0  0  0  0  0  0  0  0  0
    0.8760   20.6170   -7.6910 O   0  0  0  0  0  0  0  0  0  0  0  0
   -0.1200   18.4490   -8.6470 O   0  0  0  0  0  0  0  0  0  0  0  0
   -1.5420   17.9200   -6.0670 P   0  0  2  0  0  0  0  0  0  0  0  0
   -0.3140   16.9100   -5.8100 O   0  0  0  0  0  0  0  0  0  0  0  0
   -2.6420   17.4520   -6.9300 O   0  0  0  0  0  0  0  0  0  0  0  0
   -2.0390   18.1370   -4.5820 O   0  0  0  0  0  0  0  0  0  0  0  0
   -0.5790   15.8490   -4.9020 C   0  0  2  0  0  0  0  0  0  0  0  0
   -0.0110   16.0380   -3.6030 O   0  0  0  0  0  0  0  0  0  0  0  0
   -0.1520   14.4130   -5.2600 C   0  0  1  0  0  0  0  0  0  0  0  0
    1.2590   14.1390   -5.3060 O   0  0  0  0  0  0  0  0  0  0  0  0
   -0.2150   14.7760   -2.9380 C   0  0  0  0  0  0  0  0  0  0  0  0
   -0.6970   13.7810   -4.0000 C   0  0  2  0  0  0  0  0  0  0  0  0
   -0.2090   12.4650   -3.8130 O   0  0  0  0  0  0  0  0  0  0  0  0
  1  2  1  0
  2  3  1  0
  2  4  2  0
  2  5  1  0
  3  6  1  0
  6  7  1  0
  6  8  2  0
  6  9  1  1
 10  7  1  6
 10 11  1  0
 10 12  1  0
 12 13  1  1
 11 14  1  0
 12 15  1  0
 14 15  1  0
 15 16  1  1
M  END
>  <%Rank>  (358) 
27.251908

>  <N_hits>  (358) 
2

>  <submitter_name>  (358) 
nan

>  <original SMILES>  (358) 
nan

>  <∆G_unbound>  (358) 
1.157846

>  <∆G_bound>  (358) 
-7.676696

>  <regarded>  (358) 
mArh-5cms_B_1_B_β,mArh-5cb5_L_0_L_γ

>  <ref_pdb>  (358) 
nan

>  <smiles>  (358) 
O=P(O)(O)OP(=O)(O)OC1OCC(O)C1O

>  <submitter_email>  (358) 
nan

>  <disregarded>  (358) 


>  <LE>  (358) 
-0.552159

>  <submitter_institution>  (358) 
nan

>  <ref_mols>  (358) 
mArh-5cms_B_1_B,mArh-5cb5_L_0_L

>  <N_constrained_atoms>  (358) 
16.0

>  <ref_url>  (358) 
nan

>  <method>  (358) 
nan

>  <comRMSD>  (358) 
0.685582

>  <N_unconstrained_atoms>  (358) 
0.0

>  <∆∆G>  (358) 
-8.834542

>  <runtime>  (358) 
31.632996

>  <generation_date>  (358) 
nan

$$$$
5CB5_0_M_β-5CB5_0_K_γ
     RDKit          3D

 18 18  0  0  0  0  0  0  0  0999 V2000
   -1.5530   20.9520   -8.7840 O   0  0  0  0  0  0  0  0  0  0  0  0
   -0.5530   19.8260   -8.0780 P   0  0  0  0  0  0  0  0  0  0  0  0
   -0.5370   19.6340   -6.5190 O   0  0  0  0  0  0  0  0  0  0  0  0
    0.1760   18.6810   -8.9760 O   0  0  0  0  0  0  0  0  0  0  0  0
    0.6320   20.7600   -8.0580 O   0  0  0  0  0  0  0  0  0  0  0  0
   -1.8940   18.9900   -5.9680 P   0  0  0  0  0  0  0  0  0  0  0  0
   -1.0910   17.8560   -5.3310 O   0  0  0  0  0  0  0  0  0  0  0  0
   -2.6940   17.7630   -6.8510 O   0  0  0  0  0  0  0  0  0  0  0  0
   -2.5220   19.5870   -4.6620 O   0  0  0  0  0  0  0  0  0  0  0  0
    0.2720   17.8310   -5.6440 C   0  0  0  0  0  0  0  0  0  0  0  0
    0.8060   16.5710   -5.1340 C   0  0  0  0  0  0  0  0  0  0  0  0
   -0.2460   15.6130   -4.7450 C   0  0  2  0  0  0  0  0  0  0  0  0
   -0.3180   15.5810   -3.3580 O   0  0  0  0  0  0  0  0  0  0  0  0
   -0.0460   14.1940   -5.1230 C   0  0  1  0  0  0  0  0  0  0  0  0
    1.2610   13.7960   -4.8560 O   0  0  0  0  0  0  0  0  0  0  0  0
   -0.9800   14.4410   -2.9930 C   0  0  0  0  0  0  0  0  0  0  0  0
   -0.9870   13.5130   -4.1750 C   0  0  2  0  0  0  0  0  0  0  0  0
   -0.4200   12.2680   -3.8810 O   0  0  0  0  0  0  0  0  0  0  0  0
  1  2  1  0
  2  3  1  0
  2  4  1  0
  2  5  1  0
  3  6  1  0
  6  7  1  0
  6  8  1  0
  6  9  1  0
  7 10  1  0
 10 11  1  0
 12 11  1  1
 12 13  1  0
 12 14  1  0
 14 15  1  1
 13 16  1  0
 14 17  1  0
 16 17  1  0
 17 18  1  1
M  CHG  2   4  -1   8  -1
M  END
>  <%Rank>  (359) 
27.328244

>  <N_hits>  (359) 
2

>  <submitter_name>  (359) 
nan

>  <original SMILES>  (359) 
nan

>  <∆G_unbound>  (359) 
0.600635

>  <∆G_bound>  (359) 
-7.973106

>  <regarded>  (359) 
5CB5_0_M_β,5CB5_0_K_γ

>  <ref_pdb>  (359) 
nan

>  <smiles>  (359) 
[O-][PH](O)(O)O[PH]([O-])(O)OCCC1OCC(O)C1O

>  <submitter_email>  (359) 
nan

>  <disregarded>  (359) 


>  <LE>  (359) 
-0.476319

>  <submitter_institution>  (359) 
nan

>  <ref_mols>  (359) 
5CB5_0_M,5CB5_0_K

>  <N_constrained_atoms>  (359) 
17.0

>  <ref_url>  (359) 
nan

>  <method>  (359) 
nan

>  <comRMSD>  (359) 
0.641132

>  <N_unconstrained_atoms>  (359) 
1.0

>  <∆∆G>  (359) 
-8.573741

>  <runtime>  (359) 
41.002484

>  <generation_date>  (359) 
nan

$$$$
5FUD_1_B_α-6WOJ_0_C_γ
     RDKit          3D

 23 24  0  0  0  0  0  0  0  0999 V2000
   -1.5040   19.7200   -6.5200 O   0  0  0  0  0  0  0  0  0  0  0  0
   -1.1580   19.9200   -8.0710 S   0  0  0  0  0  0  0  0  0  0  0  0
    0.3280   20.1640   -8.3390 O   0  0  0  0  0  0  0  0  0  0  0  0
   -1.3070   18.5460   -8.7460 O   0  0  0  0  0  0  0  0  0  0  0  0
   -2.0600   21.3110   -8.6990 C   0  0  0  0  0  0  0  0  0  0  0  0
   -2.8120   21.9860   -7.5820 C   0  0  0  0  0  0  0  0  0  0  0  0
    0.8170   20.0360   -7.1160 C   0  0  0  0  0  0  0  0  0  0  0  0
    1.0780   18.6200   -6.6820 C   0  0  0  0  0  0  0  0  0  0  0  0
   -4.2480   22.0880   -7.8090 N   0  0  0  0  0  0  0  0  0  0  0  0
    0.2210   17.9870   -5.5970 C   0  0  0  0  0  0  0  0  0  0  0  0
   -4.5410   22.7140   -9.1200 C   0  0  0  0  0  0  0  0  0  0  0  0
   -4.8130   22.8930   -6.7140 C   0  0  0  0  0  0  0  0  0  0  0  0
    0.9430   16.8340   -4.8870 C   0  0  0  0  0  0  0  0  0  0  0  0
   -6.0150   23.1240   -9.2670 C   0  0  0  0  0  0  0  0  0  0  0  0
   -5.3760   24.1910   -7.2570 C   0  0  0  0  0  0  0  0  0  0  0  0
   -6.4470   23.9480   -8.1760 O   0  0  0  0  0  0  0  0  0  0  0  0
    0.1640   15.5810   -4.5140 C   0  0  2  0  0  0  0  0  0  0  0  0
    0.1210   15.4110   -3.0920 O   0  0  0  0  0  0  0  0  0  0  0  0
    0.5670   14.2030   -5.0310 C   0  0  1  0  0  0  0  0  0  0  0  0
    1.9320   13.8420   -4.9450 O   0  0  0  0  0  0  0  0  0  0  0  0
   -0.5080   14.1400   -2.8940 C   0  0  0  0  0  0  0  0  0  0  0  0
   -0.2800   13.3030   -4.1540 C   0  0  1  0  0  0  0  0  0  0  0  0
   -1.4660   12.9060   -4.8130 O   0  0  0  0  0  0  0  0  0  0  0  0
  2  1  1  0
  2  3  1  0
  2  4  1  0
  2  5  1  0
  5  6  1  0
  3  7  1  0
  7  8  1  0
  6  9  1  0
  8 10  1  0
  9 11  1  0
  9 12  1  0
 10 13  1  0
 11 14  1  0
 12 15  1  0
 14 16  1  0
 15 16  1  0
 17 13  1  1
 17 18  1  0
 17 19  1  0
 19 20  1  1
 18 21  1  0
 19 22  1  0
 21 22  1  0
 22 23  1  6
M  END
>  <%Rank>  (360) 
27.40458

>  <N_hits>  (360) 
2

>  <submitter_name>  (360) 
nan

>  <original SMILES>  (360) 
nan

>  <∆G_unbound>  (360) 
0.396564

>  <∆G_bound>  (360) 
-6.946841

>  <regarded>  (360) 
5FUD_1_B_α,6WOJ_0_C_γ

>  <ref_pdb>  (360) 
nan

>  <smiles>  (360) 
OC1COC(CCCCOS(O)(O)CCN2CCOCC2)C1O

>  <submitter_email>  (360) 
nan

>  <disregarded>  (360) 


>  <LE>  (360) 
-0.319278

>  <submitter_institution>  (360) 
nan

>  <ref_mols>  (360) 
5FUD_1_B,6WOJ_0_C

>  <N_constrained_atoms>  (360) 
20.0

>  <ref_url>  (360) 
nan

>  <method>  (360) 
nan

>  <comRMSD>  (360) 
0.578044

>  <N_unconstrained_atoms>  (360) 
3.0

>  <∆∆G>  (360) 
-7.343405

>  <runtime>  (360) 
50.512082

>  <generation_date>  (360) 
nan

$$$$
mArh-x0797_0_B_α-mArh-5cb5_Q_0_Q_α
     RDKit          3D

 27 29  0  0  0  0  0  0  0  0999 V2000
   -8.1470   29.9420  -14.0400 C   0  0  0  0  0  0  0  0  0  0  0  0
   -6.7300   29.5980  -13.6740 C   0  0  0  0  0  0  0  0  0  0  0  0
   -5.7060   30.1820  -14.4520 C   0  0  0  0  0  0  0  0  0  0  0  0
   -6.3550   28.7300  -12.6090 C   0  0  0  0  0  0  0  0  0  0  0  0
   -4.9950   28.4990  -12.3880 C   0  0  0  0  0  0  0  0  0  0  0  0
   -4.3640   29.9220  -14.1950 C   0  0  0  0  0  0  0  0  0  0  0  0
   -7.2610   27.9850  -11.6470 C   0  0  2  0  0  0  0  0  0  0  0  0
   -4.0130   29.0770  -13.1610 C   0  0  0  0  0  0  0  0  0  0  0  0
   -7.3720   26.4810  -11.8770 C   0  0  2  0  0  0  0  0  0  0  0  0
   -8.7120   28.3520  -11.4980 C   0  0  0  0  0  0  0  0  0  0  0  0
   -7.1660   25.9450  -13.2710 C   0  0  0  0  0  0  0  0  0  0  0  0
   -9.2030   27.3120  -10.6430 O   0  0  0  0  0  0  0  0  0  0  0  0
   -8.6480   26.0920  -11.1520 C   0  0  0  0  0  0  0  0  0  0  0  0
   -7.9570   26.4250  -14.2480 O   0  0  0  0  0  0  0  0  0  0  0  0
   -6.3110   25.0650  -13.6410 N   0  0  0  0  0  0  0  0  0  0  0  0
   -5.3840   24.4520  -12.6730 C   0  0  0  0  0  0  0  0  0  0  0  0
   -6.1410   23.9480  -11.4350 C   0  0  0  0  0  0  0  0  0  0  0  0
   -5.2460   23.1650  -10.4740 C   0  0  0  0  0  0  0  0  0  0  0  0
   -4.7200   24.0600   -9.4820 O   0  0  0  0  0  0  0  0  0  0  0  0
   -3.7950   23.5040   -8.5180 C   0  0  2  0  0  0  0  0  0  0  0  0
   -3.3570   22.0860   -8.8870 C   0  0  1  0  0  0  0  0  0  0  0  0
   -4.5480   23.2780   -7.2030 C   0  0  1  0  0  0  0  0  0  0  0  0
   -2.0130   21.6840   -8.2880 C   0  0  0  0  0  0  0  0  0  0  0  0
   -5.5730   24.2400   -6.9520 O   0  0  0  0  0  0  0  0  0  0  0  0
   -4.3480   21.2210   -8.3640 O   0  0  0  0  0  0  0  0  0  0  0  0
   -5.1700   21.9150   -7.4290 C   0  0  1  0  0  0  0  0  0  0  0  0
   -5.2210   21.2060   -6.1970 O   0  0  0  0  0  0  0  0  0  0  0  0
  1  2  1  0
  2  3  2  0
  2  4  1  0
  4  5  2  0
  3  6  1  0
  7  4  1  6
  5  8  1  0
  6  8  2  0
  7  9  1  0
  7 10  1  0
  9 11  1  6
 10 12  1  0
  9 13  1  0
 12 13  1  0
 11 14  1  0
 11 15  2  3
 15 16  1  0
 16 17  1  0
 17 18  1  0
 18 19  1  0
 20 19  1  6
 20 21  1  0
 20 22  1  0
 21 23  1  1
 22 24  1  6
 21 25  1  0
 22 26  1  0
 25 26  1  0
 26 27  1  1
M  END
>  <%Rank>  (361) 
27.480916

>  <N_hits>  (361) 
2

>  <submitter_name>  (361) 
nan

>  <original SMILES>  (361) 
nan

>  <∆G_unbound>  (361) 
0.804037

>  <∆G_bound>  (361) 
-8.909828

>  <regarded>  (361) 
mArh-x0797_0_B_α,mArh-5cb5_Q_0_Q_α

>  <ref_pdb>  (361) 
nan

>  <smiles>  (361) 
Cc1ccccc1C1COCC1C(O)=NCCCOC1C(C)OC(O)C1O

>  <submitter_email>  (361) 
nan

>  <disregarded>  (361) 


>  <LE>  (361) 
-0.359773

>  <submitter_institution>  (361) 
nan

>  <ref_mols>  (361) 
mArh-x0797_0_B,mArh-5cb5_Q_0_Q

>  <N_constrained_atoms>  (361) 
24.0

>  <ref_url>  (361) 
nan

>  <method>  (361) 
nan

>  <comRMSD>  (361) 
0.679529

>  <N_unconstrained_atoms>  (361) 
3.0

>  <∆∆G>  (361) 
-9.713865

>  <runtime>  (361) 
39.433356

>  <generation_date>  (361) 
nan

$$$$
mArh-5cms_N_13_N_β-5CB5_0_K_γ
     RDKit          3D

 16 16  0  0  0  0  0  0  0  0999 V2000
   -1.3980   20.4670   -8.5910 O   0  0  0  0  0  0  0  0  0  0  0  0
   -0.2640   19.7230   -7.7650 P   0  0  0  0  0  0  0  0  0  0  0  0
   -0.9730   19.3410   -6.4120 O   0  0  0  0  0  0  0  0  0  0  0  0
    0.9680   20.5150   -7.6140 O   0  0  0  0  0  0  0  0  0  0  0  0
   -0.0930   18.4140   -8.6590 O   0  0  0  0  0  0  0  0  0  0  0  0
   -1.5820   17.9380   -6.0590 P   0  0  2  0  0  0  0  0  0  0  0  0
   -0.4040   16.8700   -5.8380 O   0  0  0  0  0  0  0  0  0  0  0  0
   -2.7380   17.5210   -6.8680 O   0  0  0  0  0  0  0  0  0  0  0  0
   -1.9590   18.1850   -4.5450 O   0  0  0  0  0  0  0  0  0  0  0  0
   -0.7350   15.8020   -4.9490 C   0  0  2  0  0  0  0  0  0  0  0  0
   -0.2980   15.9920   -3.5990 O   0  0  0  0  0  0  0  0  0  0  0  0
   -0.2510   14.3730   -5.2610 C   0  0  1  0  0  0  0  0  0  0  0  0
    1.1650   14.1350   -5.1730 O   0  0  0  0  0  0  0  0  0  0  0  0
   -0.5670   14.7330   -2.9510 C   0  0  0  0  0  0  0  0  0  0  0  0
   -0.8940   13.7220   -4.0560 C   0  0  2  0  0  0  0  0  0  0  0  0
   -0.3620   12.4310   -3.8270 O   0  0  0  0  0  0  0  0  0  0  0  0
  1  2  1  0
  2  3  1  0
  2  4  2  0
  2  5  1  0
  3  6  1  0
  6  7  1  0
  6  8  2  0
  6  9  1  1
 10  7  1  6
 10 11  1  0
 10 12  1  0
 12 13  1  1
 11 14  1  0
 12 15  1  0
 14 15  1  0
 15 16  1  1
M  END
>  <%Rank>  (362) 
27.557252

>  <N_hits>  (362) 
2

>  <submitter_name>  (362) 
nan

>  <original SMILES>  (362) 
nan

>  <∆G_unbound>  (362) 
1.157846

>  <∆G_bound>  (362) 
-7.697513

>  <regarded>  (362) 
mArh-5cms_N_13_N_β,5CB5_0_K_γ

>  <ref_pdb>  (362) 
nan

>  <smiles>  (362) 
O=P(O)(O)OP(=O)(O)OC1OCC(O)C1O

>  <submitter_email>  (362) 
nan

>  <disregarded>  (362) 


>  <LE>  (362) 
-0.55346

>  <submitter_institution>  (362) 
nan

>  <ref_mols>  (362) 
mArh-5cms_N_13_N,5CB5_0_K

>  <N_constrained_atoms>  (362) 
16.0

>  <ref_url>  (362) 
nan

>  <method>  (362) 
nan

>  <comRMSD>  (362) 
0.687488

>  <N_unconstrained_atoms>  (362) 
0.0

>  <∆∆G>  (362) 
-8.855359

>  <runtime>  (362) 
30.642587

>  <generation_date>  (362) 
nan

$$$$
5CMS_0_P_β-mArh-x0967_0_A_α
     RDKit          3D

 22 23  0  0  0  0  0  0  0  0999 V2000
   -1.0110   20.5030   -8.4030 O   0  0  0  0  0  0  0  0  0  0  0  0
   -0.2090   19.5940   -7.4740 P   0  0  0  0  0  0  0  0  0  0  0  0
   -1.3140   19.4580   -6.3180 O   0  0  0  0  0  0  0  0  0  0  0  0
    1.0370   20.6750   -7.4500 O   0  0  0  0  0  0  0  0  0  0  0  0
   -0.1330   18.4580   -8.7350 O   0  0  0  0  0  0  0  0  0  0  0  0
   -1.9140   18.0190   -5.8240 P   0  0  0  0  0  0  0  0  0  0  0  0
   -0.9310   16.6850   -5.8520 O   0  0  0  0  0  0  0  0  0  0  0  0
   -2.4650   17.7400   -7.1910 O   0  0  0  0  0  0  0  0  0  0  0  0
   -1.4350   18.0960   -4.3880 O   0  0  0  0  0  0  0  0  0  0  0  0
   -1.0620   16.8710   -3.8220 C   0  0  0  0  0  0  0  0  0  0  0  0
   -2.2960   15.9860   -3.7710 C   0  0  0  0  0  0  0  0  0  0  0  0
   -2.3030   14.9170   -2.7280 C   0  0  0  0  0  0  0  0  0  0  0  0
   -3.3280   14.9270   -1.6370 C   0  0  0  0  0  0  0  0  0  0  0  0
   -4.6550   14.6870   -1.7950 N   0  0  0  0  0  0  0  0  0  0  0  0
   -2.9200   15.1840   -0.3240 C   0  0  0  0  0  0  0  0  0  0  0  0
   -5.5200   14.6850   -0.7490 C   0  0  0  0  0  0  0  0  0  0  0  0
   -3.7790   15.1870    0.7470 C   0  0  0  0  0  0  0  0  0  0  0  0
   -6.8520   14.4360   -0.9210 N   0  0  0  0  0  0  0  0  0  0  0  0
   -5.1230   14.9260    0.5480 C   0  0  0  0  0  0  0  0  0  0  0  0
   -6.0140   14.9130    1.6210 C   0  0  0  0  0  0  0  0  0  0  0  0
   -7.7250   14.4170    0.1060 C   0  0  0  0  0  0  0  0  0  0  0  0
   -7.3480   14.6490    1.4100 C   0  0  0  0  0  0  0  0  0  0  0  0
  1  2  1  0
  2  3  1  0
  2  4  1  0
  2  5  1  0
  3  6  1  0
  6  7  1  0
  6  8  1  0
  6  9  1  0
  9 10  1  0
 10 11  1  0
 11 12  1  0
 12 13  1  0
 13 14  2  0
 13 15  1  0
 14 16  1  0
 15 17  2  0
 16 18  2  0
 16 19  1  0
 17 19  1  0
 19 20  2  0
 18 21  1  0
 20 22  1  0
 21 22  2  0
M  CHG  2   4  -1   8  -1
M  END
>  <%Rank>  (363) 
27.633588

>  <N_hits>  (363) 
2

>  <submitter_name>  (363) 
nan

>  <original SMILES>  (363) 
nan

>  <∆G_unbound>  (363) 
2.656887

>  <∆G_bound>  (363) 
-7.892451

>  <regarded>  (363) 
5CMS_0_P_β,mArh-x0967_0_A_α

>  <ref_pdb>  (363) 
nan

>  <smiles>  (363) 
[O-][PH](O)(O)O[PH]([O-])(O)OCCCc1ccc2cccnc2n1

>  <submitter_email>  (363) 
nan

>  <disregarded>  (363) 


>  <LE>  (363) 
-0.479515

>  <submitter_institution>  (363) 
nan

>  <ref_mols>  (363) 
5CMS_0_P,mArh-x0967_0_A

>  <N_constrained_atoms>  (363) 
19.0

>  <ref_url>  (363) 
nan

>  <method>  (363) 
nan

>  <comRMSD>  (363) 
0.635847

>  <N_unconstrained_atoms>  (363) 
3.0

>  <∆∆G>  (363) 
-10.549338

>  <runtime>  (363) 
44.534117

>  <generation_date>  (363) 
nan

$$$$
5CB5_0_E_γ-mArh-5cb5_O_0_O_β
     RDKit          3D

 16 16  0  0  0  0  0  0  0  0999 V2000
   -1.5620   12.6220   -4.3480 O   0  0  0  0  0  0  0  0  0  0  0  0
   -0.5150   13.4980   -3.9780 C   0  0  2  0  0  0  0  0  0  0  0  0
   -0.8810   14.4690   -2.8550 C   0  0  0  0  0  0  0  0  0  0  0  0
   -0.0940   14.4100   -5.1260 C   0  0  2  0  0  0  0  0  0  0  0  0
    1.3390   14.3910   -5.1020 O   0  0  0  0  0  0  0  0  0  0  0  0
   -0.4260   15.7590   -3.2760 O   0  0  0  0  0  0  0  0  0  0  0  0
   -0.6920   15.7500   -4.6790 C   0  0  1  0  0  0  0  0  0  0  0  0
   -0.1460   17.0370   -5.2810 C   0  0  0  0  0  0  0  0  0  0  0  0
   -1.3980   18.1610   -5.9520 P   0  0  1  0  0  0  0  0  0  0  0  0
   -0.6220   19.4090   -6.5110 O   0  0  0  0  0  0  0  0  0  0  0  0
   -2.3740   17.5270   -6.8940 O   0  0  0  0  0  0  0  0  0  0  0  0
   -2.1550   18.8690   -4.7360 O   0  0  0  0  0  0  0  0  0  0  0  0
   -0.2360   19.9710   -7.9060 P   0  0  0  0  0  0  0  0  0  0  0  0
   -1.6090   20.5260   -8.4760 O   0  0  0  0  0  0  0  0  0  0  0  0
    0.8580   20.9600   -7.9470 O   0  0  0  0  0  0  0  0  0  0  0  0
   -0.0310   18.6900   -8.8400 O   0  0  0  0  0  0  0  0  0  0  0  0
  2  1  1  6
  2  3  1  0
  2  4  1  0
  4  5  1  1
  3  6  1  0
  4  7  1  0
  6  7  1  0
  7  8  1  6
  8  9  1  0
  9 10  1  0
  9 11  2  0
  9 12  1  1
 10 13  1  0
 13 14  1  0
 13 15  2  0
 13 16  1  0
M  END
>  <%Rank>  (364) 
27.709924

>  <N_hits>  (364) 
2

>  <submitter_name>  (364) 
nan

>  <original SMILES>  (364) 
nan

>  <∆G_unbound>  (364) 
1.057928

>  <∆G_bound>  (364) 
-9.09911

>  <regarded>  (364) 
5CB5_0_E_γ,mArh-5cb5_O_0_O_β

>  <ref_pdb>  (364) 
nan

>  <smiles>  (364) 
O=P(O)(O)OP(=O)(O)CC1OCC(O)C1O

>  <submitter_email>  (364) 
nan

>  <disregarded>  (364) 


>  <LE>  (364) 
-0.634815

>  <submitter_institution>  (364) 
nan

>  <ref_mols>  (364) 
5CB5_0_E,mArh-5cb5_O_0_O

>  <N_constrained_atoms>  (364) 
16.0

>  <ref_url>  (364) 
nan

>  <method>  (364) 
nan

>  <comRMSD>  (364) 
0.728979

>  <N_unconstrained_atoms>  (364) 
0.0

>  <∆∆G>  (364) 
-10.157038

>  <runtime>  (364) 
34.444169

>  <generation_date>  (364) 
nan

$$$$
5CB5_0_I_α-mArh-6mea_A_0_A_γ
     RDKit          3D

 22 23  0  0  0  0  0  0  0  0999 V2000
   -2.0310   21.9080   -8.2050 C   0  0  0  0  0  0  0  0  0  0  0  0
   -3.4220   21.9920   -8.8350 C   0  0  1  0  0  0  0  0  0  0  0  0
   -4.2210   20.9220   -8.3270 O   0  0  0  0  0  0  0  0  0  0  0  0
   -4.1250   23.3040   -8.5130 C   0  0  1  0  0  0  0  0  0  0  0  0
   -4.6170   23.9240   -9.7100 O   0  0  0  0  0  0  0  0  0  0  0  0
   -5.2830   21.3940   -7.5250 C   0  0  2  0  0  0  0  0  0  0  0  0
   -5.3370   22.9200   -7.6830 C   0  0  1  0  0  0  0  0  0  0  0  0
   -5.0670   21.0470   -6.1610 O   0  0  0  0  0  0  0  0  0  0  0  0
   -5.3760   23.6400   -6.4540 O   0  0  0  0  0  0  0  0  0  0  0  0
   -3.6650   20.9160   -5.8480 C   0  0  0  0  0  0  0  0  0  0  0  0
   -2.9260   19.8650   -6.7090 C   0  0  0  0  0  0  0  0  0  0  0  0
   -1.5130   19.5080   -6.2350 C   0  0  0  0  0  0  0  0  0  0  0  0
   -1.4570   18.4060   -5.1640 C   0  0  0  0  0  0  0  0  0  0  0  0
   -0.6580   17.1780   -5.6080 C   0  0  0  0  0  0  0  0  0  0  0  0
    0.6950   16.9790   -4.9190 C   0  0  0  0  0  0  0  0  0  0  0  0
    0.8820   15.6920   -4.0700 C   0  0  1  0  0  0  0  0  0  0  0  0
    0.0690   15.7860   -2.8670 O   0  0  0  0  0  0  0  0  0  0  0  0
    0.5210   14.3090   -4.6430 C   0  0  2  0  0  0  0  0  0  0  0  0
    0.7030   14.0660   -6.0100 O   0  0  0  0  0  0  0  0  0  0  0  0
   -0.8100   14.6490   -2.8080 C   0  0  0  0  0  0  0  0  0  0  0  0
   -0.9270   14.1640   -4.2350 C   0  0  2  0  0  0  0  0  0  0  0  0
   -1.3550   12.8240   -4.3900 O   0  0  0  0  0  0  0  0  0  0  0  0
  2  1  1  1
  2  3  1  0
  2  4  1  0
  4  5  1  6
  3  6  1  0
  4  7  1  0
  6  7  1  0
  6  8  1  1
  7  9  1  1
  8 10  1  0
 10 11  1  0
 11 12  1  0
 12 13  1  0
 13 14  1  0
 14 15  1  0
 16 15  1  6
 16 17  1  0
 16 18  1  0
 18 19  1  6
 17 20  1  0
 18 21  1  0
 20 21  1  0
 21 22  1  1
M  END
>  <%Rank>  (365) 
27.78626

>  <N_hits>  (365) 
2

>  <submitter_name>  (365) 
nan

>  <original SMILES>  (365) 
nan

>  <∆G_unbound>  (365) 
0.187336

>  <∆G_bound>  (365) 
-11.110297

>  <regarded>  (365) 
5CB5_0_I_α,mArh-6mea_A_0_A_γ

>  <ref_pdb>  (365) 
nan

>  <smiles>  (365) 
CC1OC(OCCCCCCC2OCC(O)C2O)C(O)C1O

>  <submitter_email>  (365) 
nan

>  <disregarded>  (365) 


>  <LE>  (365) 
-0.513529

>  <submitter_institution>  (365) 
nan

>  <ref_mols>  (365) 
5CB5_0_I,mArh-6mea_A_0_A

>  <N_constrained_atoms>  (365) 
17.0

>  <ref_url>  (365) 
nan

>  <method>  (365) 
nan

>  <comRMSD>  (365) 
0.544106

>  <N_unconstrained_atoms>  (365) 
5.0

>  <∆∆G>  (365) 
-11.297633

>  <runtime>  (365) 
34.378616

>  <generation_date>  (365) 
nan

$$$$
5CB5_0_Q_γ-mArh-mac-120_0_A_α
     RDKit          3D

 17 18  0  0  0  0  0  0  0  0999 V2000
   -0.6470   12.7630   -4.2140 O   0  0  0  0  0  0  0  0  0  0  0  0
   -0.9860   14.0250   -4.7790 C   0  0  1  0  0  0  0  0  0  0  0  0
   -1.4760   15.0660   -3.7490 C   0  0  1  0  0  0  0  0  0  0  0  0
    0.2710   14.6800   -5.3330 C   0  0  2  0  0  0  0  0  0  0  0  0
    1.4040   14.2990   -4.5440 O   0  0  0  0  0  0  0  0  0  0  0  0
   -1.5870   14.4830   -2.3610 C   0  0  0  0  0  0  0  0  0  0  0  0
   -0.5430   16.1640   -3.8060 O   0  0  0  0  0  0  0  0  0  0  0  0
   -0.1170   16.1480   -5.1590 C   0  0  1  0  0  0  0  0  0  0  0  0
    0.9110   17.2200   -5.4330 C   0  0  0  0  0  0  0  0  0  0  0  0
   -2.8880   14.6310   -1.5980 C   0  0  0  0  0  0  0  0  0  0  0  0
   -2.6380   14.6830   -0.2920 N   0  0  0  0  0  0  0  0  0  0  0  0
   -4.1930   14.7060   -2.1040 C   0  0  0  0  0  0  0  0  0  0  0  0
   -5.2620   14.8400   -1.1880 C   0  0  0  0  0  0  0  0  0  0  0  0
   -3.6240   14.8100    0.5670 C   0  0  0  0  0  0  0  0  0  0  0  0
   -6.6870   14.9260   -1.6450 C   0  0  0  0  0  0  0  0  0  0  0  0
   -3.2130   14.8540    1.8910 N   0  0  0  0  0  0  0  0  0  0  0  0
   -4.9500   14.8910    0.1790 C   0  0  0  0  0  0  0  0  0  0  0  0
  2  1  1  1
  2  3  1  0
  2  4  1  0
  4  5  1  1
  3  6  1  1
  3  7  1  0
  4  8  1  0
  7  8  1  0
  8  9  1  1
  6 10  1  0
 10 11  2  0
 10 12  1  0
 12 13  2  0
 11 14  1  0
 13 15  1  0
 14 16  1  0
 13 17  1  0
 14 17  2  0
M  END
>  <%Rank>  (366) 
27.862595

>  <N_hits>  (366) 
2

>  <submitter_name>  (366) 
nan

>  <original SMILES>  (366) 
nan

>  <∆G_unbound>  (366) 
0.281243

>  <∆G_bound>  (366) 
-7.372661

>  <regarded>  (366) 
5CB5_0_Q_γ,mArh-mac-120_0_A_α

>  <ref_pdb>  (366) 
nan

>  <smiles>  (366) 
Cc1cc(N)nc(CC2OC(C)C(O)C2O)c1

>  <submitter_email>  (366) 
nan

>  <disregarded>  (366) 


>  <LE>  (366) 
-0.45023

>  <submitter_institution>  (366) 
nan

>  <ref_mols>  (366) 
5CB5_0_Q,mArh-mac-120_0_A

>  <N_constrained_atoms>  (366) 
16.0

>  <ref_url>  (366) 
nan

>  <method>  (366) 
nan

>  <comRMSD>  (366) 
0.606358

>  <N_unconstrained_atoms>  (366) 
1.0

>  <∆∆G>  (366) 
-7.653904

>  <runtime>  (366) 
32.429504

>  <generation_date>  (366) 
nan

$$$$
5CB5_0_C_α-mArh-5cb3_0_A_β
     RDKit          3D

 17 17  0  0  0  0  0  0  0  0999 V2000
   -1.6160   21.7970   -7.8930 C   0  0  0  0  0  0  0  0  0  0  0  0
   -0.7020   20.2540   -7.6630 P   0  0  2  0  0  0  0  0  0  0  0  0
   -1.2720   19.6230   -6.3160 O   0  0  0  0  0  0  0  0  0  0  0  0
   -3.0160   21.9440   -8.5060 C   0  0  1  0  0  0  0  0  0  0  0  0
    0.7770   20.4350   -7.6310 O   0  0  0  0  0  0  0  0  0  0  0  0
   -1.0890   19.1100   -8.7070 O   0  0  0  0  0  0  0  0  0  0  0  0
   -3.9690   21.0820   -7.8900 O   0  0  0  0  0  0  0  0  0  0  0  0
   -3.6080   23.3510   -8.2760 C   0  0  1  0  0  0  0  0  0  0  0  0
   -4.5220   23.7640   -9.2960 O   0  0  0  0  0  0  0  0  0  0  0  0
   -1.6980   18.1090   -6.1100 P   0  0  0  0  0  0  0  0  0  0  0  0
   -4.5430   21.7440   -6.7540 C   0  0  1  0  0  0  0  0  0  0  0  0
   -4.3030   23.2500   -6.9080 C   0  0  2  0  0  0  0  0  0  0  0  0
   -5.9190   21.4250   -6.6150 O   0  0  0  0  0  0  0  0  0  0  0  0
   -5.5670   23.9500   -6.9020 O   0  0  0  0  0  0  0  0  0  0  0  0
   -0.3420   17.2800   -6.1080 O   0  0  0  0  0  0  0  0  0  0  0  0
   -2.7430   17.5350   -6.9780 O   0  0  0  0  0  0  0  0  0  0  0  0
   -2.0680   17.9930   -4.5760 O   0  0  0  0  0  0  0  0  0  0  0  0
  1  2  1  0
  2  3  1  0
  4  1  1  1
  2  5  2  0
  2  6  1  6
  4  7  1  0
  4  8  1  0
  8  9  1  6
  3 10  1  0
  7 11  1  0
  8 12  1  0
 11 12  1  0
 11 13  1  6
 12 14  1  6
 10 15  1  0
 10 16  2  0
 10 17  1  0
M  END
>  <%Rank>  (367) 
27.938931

>  <N_hits>  (367) 
2

>  <submitter_name>  (367) 
nan

>  <original SMILES>  (367) 
nan

>  <∆G_unbound>  (367) 
1.703844

>  <∆G_bound>  (367) 
-11.984161

>  <regarded>  (367) 
5CB5_0_C_α,mArh-5cb3_0_A_β

>  <ref_pdb>  (367) 
nan

>  <smiles>  (367) 
O=P(O)(O)OP(=O)(O)CC1OC(O)C(O)C1O

>  <submitter_email>  (367) 
nan

>  <disregarded>  (367) 


>  <LE>  (367) 
-0.805177

>  <submitter_institution>  (367) 
nan

>  <ref_mols>  (367) 
5CB5_0_C,mArh-5cb3_0_A

>  <N_constrained_atoms>  (367) 
17.0

>  <ref_url>  (367) 
nan

>  <method>  (367) 
nan

>  <comRMSD>  (367) 
0.838266

>  <N_unconstrained_atoms>  (367) 
0.0

>  <∆∆G>  (367) 
-13.688006

>  <runtime>  (367) 
33.883363

>  <generation_date>  (367) 
nan

$$$$
5CB5_0_H_γ-mArh-x0742_0_A_α
     RDKit          3D

 25 28  0  0  0  0  0  0  0  0999 V2000
   -1.2220   12.4770   -4.4400 O   0  0  0  0  0  0  0  0  0  0  0  0
   -1.2400   13.8900   -4.5300 C   0  0  1  0  0  0  0  0  0  0  0  0
   -1.1060   14.6280   -3.2110 C   0  0  2  0  0  0  0  0  0  0  0  0
   -0.0420   14.4380   -5.2560 C   0  0  2  0  0  0  0  0  0  0  0  0
    1.1430   13.8220   -4.7840 O   0  0  0  0  0  0  0  0  0  0  0  0
   -0.3430   15.8280   -3.4510 O   0  0  0  0  0  0  0  0  0  0  0  0
   -0.2440   15.9000   -4.8710 C   0  0  1  0  0  0  0  0  0  0  0  0
   -0.4810   13.7970   -2.1270 C   0  0  0  0  0  0  0  0  0  0  0  0
    0.8190   16.8830   -5.2960 C   0  0  0  0  0  0  0  0  0  0  0  0
   -0.9820   13.9960   -0.7450 C   0  0  0  0  0  0  0  0  0  0  0  0
    0.0410   14.1430    0.1680 C   0  0  0  0  0  0  0  0  0  0  0  0
   -2.3330   14.0380   -0.3150 C   0  0  0  0  0  0  0  0  0  0  0  0
   -3.5710   13.9010   -1.2210 C   0  0  1  0  0  0  0  0  0  0  0  0
   -0.2490   14.3140    1.4880 C   0  0  0  0  0  0  0  0  0  0  0  0
   -2.4930   14.2100    1.0750 C   0  0  0  0  0  0  0  0  0  0  0  0
   -4.9250   13.7160   -0.4730 C   0  0  1  0  0  0  0  0  0  0  0  0
   -3.8340   15.1430   -2.1050 C   0  0  0  0  0  0  0  0  0  0  0  0
   -1.4850   14.3430    1.9470 N   0  0  0  0  0  0  0  0  0  0  0  0
   -3.8130   14.2470    1.7540 C   0  0  0  0  0  0  0  0  0  0  0  0
   -5.3560   12.2580   -0.3350 C   0  0  0  0  0  0  0  0  0  0  0  0
   -4.9920   14.4860    0.8480 C   0  0  0  0  0  0  0  0  0  0  0  0
   -5.9450   14.3090   -1.4360 C   0  0  0  0  0  0  0  0  0  0  0  0
   -5.2790   15.5570   -1.8780 C   0  0  0  0  0  0  0  0  0  0  0  0
   -5.0040   11.4160   -1.1650 O   0  0  0  0  0  0  0  0  0  0  0  0
   -6.2580   11.8880    0.8160 C   0  0  0  0  0  0  0  0  0  0  0  0
  2  1  1  1
  2  3  1  0
  2  4  1  0
  4  5  1  1
  3  6  1  0
  4  7  1  0
  6  7  1  0
  3  8  1  1
  7  9  1  1
  8 10  1  0
 10 11  2  0
 10 12  1  0
 12 13  1  0
 11 14  1  0
 12 15  2  0
 13 16  1  0
 13 17  1  1
 14 18  2  0
 15 18  1  0
 15 19  1  0
 16 20  1  1
 16 21  1  0
 19 21  1  0
 16 22  1  0
 17 23  1  0
 22 23  1  0
 20 24  2  0
 20 25  1  0
M  END
>  <%Rank>  (368) 
28.015267

>  <N_hits>  (368) 
2

>  <submitter_name>  (368) 
nan

>  <original SMILES>  (368) 
nan

>  <∆G_unbound>  (368) 
0.109762

>  <∆G_bound>  (368) 
-9.103394

>  <regarded>  (368) 
5CB5_0_H_γ,mArh-x0742_0_A_α

>  <ref_pdb>  (368) 
nan

>  <smiles>  (368) 
CC(=O)C12CCCC1c1c(CC3OC(C)C(O)C3O)ccnc1CC2

>  <submitter_email>  (368) 
nan

>  <disregarded>  (368) 


>  <LE>  (368) 
-0.368526

>  <submitter_institution>  (368) 
nan

>  <ref_mols>  (368) 
5CB5_0_H,mArh-x0742_0_A

>  <N_constrained_atoms>  (368) 
19.0

>  <ref_url>  (368) 
nan

>  <method>  (368) 
nan

>  <comRMSD>  (368) 
0.503646

>  <N_unconstrained_atoms>  (368) 
6.0

>  <∆∆G>  (368) 
-9.213156

>  <runtime>  (368) 
33.816488

>  <generation_date>  (368) 
nan

$$$$
mArh-5l9k_A_0_A_β-mArh-5cb5_O_0_O_γ
     RDKit          3D

 18 18  0  0  0  0  0  0  0  0999 V2000
   -1.9230   20.7410   -8.8390 O   0  0  0  0  0  0  0  0  0  0  0  0
   -1.0080   19.8520   -7.9000 P   0  0  0  0  0  0  0  0  0  0  0  0
   -1.9160   19.4910   -6.6520 O   0  0  0  0  0  0  0  0  0  0  0  0
   -0.4660   18.6860   -8.6490 O   0  0  0  0  0  0  0  0  0  0  0  0
    0.1210   20.8770   -7.4930 O   0  0  0  0  0  0  0  0  0  0  0  0
   -2.1190   18.0360   -6.0750 P   0  0  1  0  0  0  0  0  0  0  0  0
   -0.7460   17.3630   -6.3040 O   0  0  0  0  0  0  0  0  0  0  0  0
   -2.4510   17.8790   -4.6530 O   0  0  0  0  0  0  0  0  0  0  0  0
   -3.1210   17.3000   -7.0850 O   0  0  0  0  0  0  0  0  0  0  0  0
    0.1000   17.8790   -5.3270 C   0  0  0  0  0  0  0  0  0  0  0  0
    1.1510   16.9130   -4.9020 C   0  0  0  0  0  0  0  0  0  0  0  0
    0.7950   15.6150   -4.1900 C   0  0  1  0  0  0  0  0  0  0  0  0
   -0.1760   15.8250   -3.1610 O   0  0  0  0  0  0  0  0  0  0  0  0
    0.3190   14.4710   -5.0870 C   0  0  1  0  0  0  0  0  0  0  0  0
    1.2980   13.4360   -5.1760 O   0  0  0  0  0  0  0  0  0  0  0  0
   -0.8680   14.5820   -3.0140 C   0  0  0  0  0  0  0  0  0  0  0  0
   -0.9340   13.9490   -4.3970 C   0  0  2  0  0  0  0  0  0  0  0  0
   -0.8760   12.5290   -4.2790 O   0  0  0  0  0  0  0  0  0  0  0  0
  1  2  1  0
  2  3  1  0
  2  4  2  0
  2  5  1  0
  3  6  1  0
  6  7  1  0
  6  8  2  0
  6  9  1  6
  7 10  1  0
 10 11  1  0
 12 11  1  6
 12 13  1  0
 12 14  1  0
 14 15  1  1
 13 16  1  0
 14 17  1  0
 16 17  1  0
 17 18  1  1
M  END
>  <%Rank>  (369) 
28.091603

>  <N_hits>  (369) 
2

>  <submitter_name>  (369) 
nan

>  <original SMILES>  (369) 
nan

>  <∆G_unbound>  (369) 
2.208268

>  <∆G_bound>  (369) 
-7.920364

>  <regarded>  (369) 
mArh-5l9k_A_0_A_β,mArh-5cb5_O_0_O_γ

>  <ref_pdb>  (369) 
nan

>  <smiles>  (369) 
O=P(O)(O)OP(=O)(O)OCCC1OCC(O)C1O

>  <submitter_email>  (369) 
nan

>  <disregarded>  (369) 


>  <LE>  (369) 
-0.562702

>  <submitter_institution>  (369) 
nan

>  <ref_mols>  (369) 
mArh-5l9k_A_0_A,mArh-5cb5_O_0_O

>  <N_constrained_atoms>  (369) 
17.0

>  <ref_url>  (369) 
nan

>  <method>  (369) 
nan

>  <comRMSD>  (369) 
0.688213

>  <N_unconstrained_atoms>  (369) 
1.0

>  <∆∆G>  (369) 
-10.128632

>  <runtime>  (369) 
29.994843

>  <generation_date>  (369) 
nan

$$$$
5CMS_0_Q_γ-mArh-5cb5_Q_0_Q_β
     RDKit          3D

 16 16  0  0  0  0  0  0  0  0999 V2000
   -1.9120   12.6410   -4.3310 O   0  0  0  0  0  0  0  0  0  0  0  0
   -0.6880   13.2900   -4.0410 C   0  0  2  0  0  0  0  0  0  0  0  0
   -0.7710   14.2500   -2.8470 C   0  0  0  0  0  0  0  0  0  0  0  0
   -0.2140   14.1810   -5.1820 C   0  0  2  0  0  0  0  0  0  0  0  0
    1.2180   14.0260   -5.1940 O   0  0  0  0  0  0  0  0  0  0  0  0
   -0.3050   15.5320   -3.3020 O   0  0  0  0  0  0  0  0  0  0  0  0
   -0.7000   15.5530   -4.6790 C   0  0  1  0  0  0  0  0  0  0  0  0
   -0.1820   16.8380   -5.3270 C   0  0  0  0  0  0  0  0  0  0  0  0
   -1.4510   18.0330   -5.8690 P   0  0  1  0  0  0  0  0  0  0  0  0
   -0.6990   19.3000   -6.4180 O   0  0  0  0  0  0  0  0  0  0  0  0
   -2.5180   17.4860   -6.7710 O   0  0  0  0  0  0  0  0  0  0  0  0
   -2.0610   18.7250   -4.5660 O   0  0  0  0  0  0  0  0  0  0  0  0
   -0.2390   19.8600   -7.7920 P   0  0  0  0  0  0  0  0  0  0  0  0
   -1.5850   20.4370   -8.4080 O   0  0  0  0  0  0  0  0  0  0  0  0
    0.8600   20.8450   -7.7760 O   0  0  0  0  0  0  0  0  0  0  0  0
    0.0000   18.5880   -8.7410 O   0  0  0  0  0  0  0  0  0  0  0  0
  2  1  1  6
  2  3  1  0
  2  4  1  0
  4  5  1  1
  3  6  1  0
  4  7  1  0
  6  7  1  0
  7  8  1  6
  8  9  1  0
  9 10  1  0
  9 11  2  0
  9 12  1  1
 10 13  1  0
 13 14  1  0
 13 15  2  0
 13 16  1  0
M  END
>  <%Rank>  (370) 
28.167939

>  <N_hits>  (370) 
2

>  <submitter_name>  (370) 
nan

>  <original SMILES>  (370) 
nan

>  <∆G_unbound>  (370) 
1.057928

>  <∆G_bound>  (370) 
-9.030546

>  <regarded>  (370) 
5CMS_0_Q_γ,mArh-5cb5_Q_0_Q_β

>  <ref_pdb>  (370) 
nan

>  <smiles>  (370) 
O=P(O)(O)OP(=O)(O)CC1OCC(O)C1O

>  <submitter_email>  (370) 
nan

>  <disregarded>  (370) 


>  <LE>  (370) 
-0.63053

>  <submitter_institution>  (370) 
nan

>  <ref_mols>  (370) 
5CMS_0_Q,mArh-5cb5_Q_0_Q

>  <N_constrained_atoms>  (370) 
16.0

>  <ref_url>  (370) 
nan

>  <method>  (370) 
nan

>  <comRMSD>  (370) 
0.732694

>  <N_unconstrained_atoms>  (370) 
0.0

>  <∆∆G>  (370) 
-10.088474

>  <runtime>  (370) 
41.904123

>  <generation_date>  (370) 
nan

$$$$
5CMS_0_D_α-3EW5_0_C_α
     RDKit          3D

 14 13  0  0  0  0  0  0  0  0999 V2000
   -0.4870   16.9740   -5.2710 O   0  0  0  0  0  0  0  0  0  0  0  0
   -1.4270   18.0270   -6.1610 P   0  0  0  0  0  0  0  0  0  0  0  0
   -2.7950   17.4060   -6.7910 O   0  0  0  0  0  0  0  0  0  0  0  0
   -2.1280   18.5320   -4.9260 O   0  0  0  0  0  0  0  0  0  0  0  0
   -0.9170   19.4970   -6.6180 O   0  0  0  0  0  0  0  0  0  0  0  0
   -0.5510   19.9490   -8.0490 P   0  0  0  0  0  0  0  0  0  0  0  0
   -2.0300   20.6690   -8.2000 O   0  0  0  0  0  0  0  0  0  0  0  0
   -0.2920   18.4390   -8.5420 O   0  0  0  0  0  0  0  0  0  0  0  0
    0.6960   20.8680   -7.5390 O   0  0  0  0  0  0  0  0  0  0  0  0
   -2.4220   21.6540   -7.3190 C   0  0  0  0  0  0  0  0  0  0  0  0
   -3.9140   21.9190   -7.6330 C   0  0  2  0  0  0  0  0  0  0  0  0
   -4.1580   23.2640   -8.3200 C   0  0  0  0  0  0  0  0  0  0  0  0
   -4.5350   22.0350   -6.4030 O   0  0  0  0  0  0  0  0  0  0  0  0
   -4.6580   23.0190   -9.5800 O   0  0  0  0  0  0  0  0  0  0  0  0
  1  2  1  0
  2  3  1  0
  2  4  1  0
  2  5  1  0
  5  6  1  0
  6  7  1  0
  6  8  1  0
  6  9  1  0
  7 10  1  0
 10 11  1  0
 11 12  1  0
 11 13  1  1
 12 14  1  0
M  CHG  2   3  -1   8  -1
M  END
>  <%Rank>  (371) 
28.244275

>  <N_hits>  (371) 
2

>  <submitter_name>  (371) 
nan

>  <original SMILES>  (371) 
nan

>  <∆G_unbound>  (371) 
2.076917

>  <∆G_bound>  (371) 
-7.125382

>  <regarded>  (371) 
5CMS_0_D_α,3EW5_0_C_α

>  <ref_pdb>  (371) 
nan

>  <smiles>  (371) 
[O-][PH](O)(O)O[PH]([O-])(O)OC[C@@H](O)CO

>  <submitter_email>  (371) 
nan

>  <disregarded>  (371) 


>  <LE>  (371) 
-0.657307

>  <submitter_institution>  (371) 
nan

>  <ref_mols>  (371) 
5CMS_0_D,3EW5_0_C

>  <N_constrained_atoms>  (371) 
14.0

>  <ref_url>  (371) 
nan

>  <method>  (371) 
nan

>  <comRMSD>  (371) 
0.697217

>  <N_unconstrained_atoms>  (371) 
0.0

>  <∆∆G>  (371) 
-9.202299

>  <runtime>  (371) 
31.201458

>  <generation_date>  (371) 
nan

$$$$
5CMS_0_A_γ-mArh-x0681_0_A_α
     RDKit          3D

 20 22  0  0  0  0  0  0  0  0999 V2000
   -0.4110   12.0560   -3.4980 O   0  0  0  0  0  0  0  0  0  0  0  0
   -1.0390   13.2480   -3.9650 C   0  0  1  0  0  0  0  0  0  0  0  0
   -1.2380   14.3300   -2.8480 C   0  0  2  0  0  0  0  0  0  0  0  0
   -0.1490   13.9410   -5.0010 C   0  0  2  0  0  0  0  0  0  0  0  0
    1.2050   13.4590   -4.8900 O   0  0  0  0  0  0  0  0  0  0  0  0
   -2.6010   14.8220   -3.0730 N   0  0  0  0  0  0  0  0  0  0  0  0
   -0.2430   15.3340   -3.1360 O   0  0  0  0  0  0  0  0  0  0  0  0
   -0.2620   15.4010   -4.5710 C   0  0  1  0  0  0  0  0  0  0  0  0
    0.8030   16.3510   -5.0890 C   0  0  0  0  0  0  0  0  0  0  0  0
   -3.6450   14.9750   -2.2930 C   0  0  0  0  0  0  0  0  0  0  0  0
   -4.8050   15.4560   -2.8090 N   0  0  0  0  0  0  0  0  0  0  0  0
   -3.8880   14.6960   -0.7920 C   0  0  1  0  0  0  0  0  0  0  0  0
   -4.8310   13.5520   -0.6790 C   0  0  0  0  0  0  0  0  0  0  0  0
   -2.8360   14.5990    0.2950 C   0  0  0  0  0  0  0  0  0  0  0  0
   -5.2350   13.1590    0.5370 N   0  0  0  0  0  0  0  0  0  0  0  0
   -3.5830   14.7340    1.6310 C   0  0  0  0  0  0  0  0  0  0  0  0
   -5.3820   12.8090   -1.6190 N   0  0  0  0  0  0  0  0  0  0  0  0
   -4.7870   13.7730    1.7510 C   0  0  0  0  0  0  0  0  0  0  0  0
   -6.0950   12.1200    0.4090 C   0  0  0  0  0  0  0  0  0  0  0  0
   -6.1770   11.9100   -0.9460 C   0  0  0  0  0  0  0  0  0  0  0  0
  2  1  1  1
  2  3  1  0
  2  4  1  0
  4  5  1  1
  3  6  1  6
  3  7  1  0
  4  8  1  0
  7  8  1  0
  8  9  1  6
  6 10  2  3
 10 11  1  0
 12 10  1  6
 12 13  1  0
 12 14  1  0
 13 15  1  0
 14 16  1  0
 13 17  2  0
 15 18  1  0
 16 18  1  0
 15 19  1  0
 17 20  1  0
 19 20  2  0
M  END
>  <%Rank>  (372) 
28.320611

>  <N_hits>  (372) 
2

>  <submitter_name>  (372) 
nan

>  <original SMILES>  (372) 
nan

>  <∆G_unbound>  (372) 
0.568831

>  <∆G_bound>  (372) 
-6.132682

>  <regarded>  (372) 
5CMS_0_A_γ,mArh-x0681_0_A_α

>  <ref_pdb>  (372) 
nan

>  <smiles>  (372) 
CC1OC(N=C(N)C2CCCn3ccnc32)C(O)C1O

>  <submitter_email>  (372) 
nan

>  <disregarded>  (372) 


>  <LE>  (372) 
-0.335076

>  <submitter_institution>  (372) 
nan

>  <ref_mols>  (372) 
5CMS_0_A,mArh-x0681_0_A

>  <N_constrained_atoms>  (372) 
20.0

>  <ref_url>  (372) 
nan

>  <method>  (372) 
nan

>  <comRMSD>  (372) 
0.668479

>  <N_unconstrained_atoms>  (372) 
0.0

>  <∆∆G>  (372) 
-6.701512

>  <runtime>  (372) 
30.629319

>  <generation_date>  (372) 
nan

$$$$
mArh-5cb5_C_0_C_β-5CB3_0_A_δ
     RDKit          3D

 21 22  0  0  0  0  0  0  0  0999 V2000
   -1.5090   20.6910   -8.6280 O   0  0  0  0  0  0  0  0  0  0  0  0
   -0.3880   19.9560   -7.7740 P   0  0  0  0  0  0  0  0  0  0  0  0
   -1.0350   19.6070   -6.3620 O   0  0  0  0  0  0  0  0  0  0  0  0
    0.8440   20.7830   -7.7190 O   0  0  0  0  0  0  0  0  0  0  0  0
   -0.2420   18.5960   -8.6010 O   0  0  0  0  0  0  0  0  0  0  0  0
   -1.6160   18.1720   -6.0370 P   0  0  2  0  0  0  0  0  0  0  0  0
   -0.3310   17.2820   -6.3050 O   0  0  0  0  0  0  0  0  0  0  0  0
   -2.7630   17.7850   -6.8940 O   0  0  0  0  0  0  0  0  0  0  0  0
   -1.7590   17.9620   -4.4530 O   0  0  0  0  0  0  0  0  0  0  0  0
   -0.6440   17.3080   -3.8260 C   0  0  0  0  0  0  0  0  0  0  0  0
   -0.9200   16.2070   -2.7540 C   0  0  0  0  0  0  0  0  0  0  0  0
   -2.2750   15.4600   -2.5520 C   0  0  1  0  0  0  0  0  0  0  0  0
   -2.0180   14.0650   -2.2240 N   0  0  0  0  0  0  0  0  0  0  0  0
   -3.1760   15.9190   -1.4790 N   0  0  0  0  0  0  0  0  0  0  0  0
   -1.9200   14.0870   -0.7740 C   0  0  2  0  0  0  0  0  0  0  0  0
   -3.1180   14.9220   -0.3910 C   0  0  1  0  0  0  0  0  0  0  0  0
   -0.6650   14.6700   -0.3780 N   0  0  0  0  0  0  0  0  0  0  0  0
   -2.8340   15.5070    0.9900 C   0  0  1  0  0  0  0  0  0  0  0  0
   -4.0410   15.5910    1.8080 N   0  0  0  0  0  0  0  0  0  0  0  0
   -0.5500   14.5950    1.0640 C   0  0  0  0  0  0  0  0  0  0  0  0
   -1.8420   14.7710    1.7300 N   0  0  0  0  0  0  0  0  0  0  0  0
  1  2  1  0
  2  3  1  0
  2  4  2  0
  2  5  1  0
  3  6  1  0
  6  7  1  6
  6  8  2  0
  6  9  1  0
  9 10  1  0
 10 11  1  0
 12 11  1  1
 12 13  1  0
 12 14  1  0
 15 13  1  6
 16 14  1  6
 15 16  1  0
 15 17  1  0
 16 18  1  0
 18 19  1  1
 17 20  1  0
 18 21  1  0
 20 21  1  0
M  END
>  <%Rank>  (373) 
28.396947

>  <N_hits>  (373) 
2

>  <submitter_name>  (373) 
nan

>  <original SMILES>  (373) 
nan

>  <∆G_unbound>  (373) 
4.831508

>  <∆G_bound>  (373) 
-9.403034

>  <regarded>  (373) 
mArh-5cb5_C_0_C_β,5CB3_0_A_δ

>  <ref_pdb>  (373) 
nan

>  <smiles>  (373) 
NC1NCNC2NC(CCOP(=O)(O)OP(=O)(O)O)NC12

>  <submitter_email>  (373) 
nan

>  <disregarded>  (373) 


>  <LE>  (373) 
-0.677835

>  <submitter_institution>  (373) 
nan

>  <ref_mols>  (373) 
mArh-5cb5_C_0_C,5CB3_0_A

>  <N_constrained_atoms>  (373) 
19.0

>  <ref_url>  (373) 
nan

>  <method>  (373) 
nan

>  <comRMSD>  (373) 
0.768242

>  <N_unconstrained_atoms>  (373) 
2.0

>  <∆∆G>  (373) 
-14.234542

>  <runtime>  (373) 
27.159986

>  <generation_date>  (373) 
nan

$$$$
5CB5_0_C_γ-5CB3_0_A_β
     RDKit          3D

 16 16  0  0  0  0  0  0  0  0999 V2000
   -0.5770   12.5470   -3.7590 O   0  0  0  0  0  0  0  0  0  0  0  0
   -0.9110   13.8900   -3.8730 C   0  0  1  0  0  0  0  0  0  0  0  0
   -0.3660   14.7450   -2.7340 C   0  0  0  0  0  0  0  0  0  0  0  0
   -0.2840   14.5390   -5.0710 C   0  0  2  0  0  0  0  0  0  0  0  0
    1.0590   14.1480   -5.1150 O   0  0  0  0  0  0  0  0  0  0  0  0
    0.1240   15.9160   -3.3560 O   0  0  0  0  0  0  0  0  0  0  0  0
   -0.4930   15.9180   -4.5850 C   0  0  1  0  0  0  0  0  0  0  0  0
   -0.1450   17.1320   -5.4520 C   0  0  0  0  0  0  0  0  0  0  0  0
   -1.5970   18.0610   -5.7320 P   0  0  0  0  0  0  0  0  0  0  0  0
   -1.1350   19.3420   -6.4270 O   0  0  0  0  0  0  0  0  0  0  0  0
   -2.5970   17.8020   -7.0720 O   0  0  0  0  0  0  0  0  0  0  0  0
   -2.1530   19.0260   -4.6030 O   0  0  0  0  0  0  0  0  0  0  0  0
   -0.1790   19.5880   -7.6670 P   0  0  0  0  0  0  0  0  0  0  0  0
   -1.2910   20.3060   -8.4380 O   0  0  0  0  0  0  0  0  0  0  0  0
    0.7250   20.9950   -7.7750 O   0  0  0  0  0  0  0  0  0  0  0  0
    0.0320   18.4400   -8.8140 O   0  0  0  0  0  0  0  0  0  0  0  0
  2  1  1  1
  2  3  1  0
  2  4  1  0
  4  5  1  1
  3  6  1  0
  4  7  1  0
  6  7  1  0
  7  8  1  6
  8  9  1  0
  9 10  1  0
  9 11  1  0
  9 12  1  0
 10 13  1  0
 13 14  1  0
 13 15  1  0
 13 16  1  0
M  CHG  2  11  -1  15  -1
M  END
>  <%Rank>  (374) 
28.473282

>  <N_hits>  (374) 
2

>  <submitter_name>  (374) 
nan

>  <original SMILES>  (374) 
nan

>  <∆G_unbound>  (374) 
0.683631

>  <∆G_bound>  (374) 
-7.230663

>  <regarded>  (374) 
5CB5_0_C_γ,5CB3_0_A_β

>  <ref_pdb>  (374) 
nan

>  <smiles>  (374) 
[O-][PH](O)(O)O[PH]([O-])(O)CC1OCC(O)C1O

>  <submitter_email>  (374) 
nan

>  <disregarded>  (374) 


>  <LE>  (374) 
-0.494643

>  <submitter_institution>  (374) 
nan

>  <ref_mols>  (374) 
5CB5_0_C,5CB3_0_A

>  <N_constrained_atoms>  (374) 
16.0

>  <ref_url>  (374) 
nan

>  <method>  (374) 
nan

>  <comRMSD>  (374) 
0.665917

>  <N_unconstrained_atoms>  (374) 
0.0

>  <∆∆G>  (374) 
-7.914294

>  <runtime>  (374) 
29.074629

>  <generation_date>  (374) 
nan

$$$$
5MQX_0_A_δ-mArh-5dus_0_A_β
     RDKit          3D

 22 23  0  0  0  0  0  0  0  0999 V2000
   -3.9490   15.6320    2.3720 N   0  0  0  0  0  0  0  0  0  0  0  0
   -3.2340   15.2830    1.1660 C   0  0  2  0  0  0  0  0  0  0  0  0
   -3.1360   14.0980    0.2300 C   0  0  2  0  0  0  0  0  0  0  0  0
   -2.2710   14.6300    2.0330 N   0  0  0  0  0  0  0  0  0  0  0  0
   -1.8050   14.2510   -0.4570 C   0  0  2  0  0  0  0  0  0  0  0  0
   -4.1230   13.9800   -0.8420 N   0  0  0  0  0  0  0  0  0  0  0  0
   -0.8640   14.5430    1.5870 C   0  0  0  0  0  0  0  0  0  0  0  0
   -1.9920   13.6010   -1.7410 N   0  0  0  0  0  0  0  0  0  0  0  0
   -3.3860   13.1680   -1.7940 C   0  0  0  0  0  0  0  0  0  0  0  0
   -0.7610   13.7820    0.3820 N   0  0  0  0  0  0  0  0  0  0  0  0
   -1.5530   14.3040   -2.9570 C   0  0  0  0  0  0  0  0  0  0  0  0
   -1.4720   15.8500   -2.8850 C   0  0  0  0  0  0  0  0  0  0  0  0
   -0.5800   16.5840   -3.8910 C   0  0  0  0  0  0  0  0  0  0  0  0
   -1.1750   16.6090   -5.1780 O   0  0  0  0  0  0  0  0  0  0  0  0
   -1.5940   18.0010   -5.8660 P   0  0  1  0  0  0  0  0  0  0  0  0
   -0.2730   18.7690   -6.2810 O   0  0  0  0  0  0  0  0  0  0  0  0
   -2.6360   17.8720   -6.9180 O   0  0  0  0  0  0  0  0  0  0  0  0
   -2.0970   18.8910   -4.6740 O   0  0  0  0  0  0  0  0  0  0  0  0
   -0.1270   19.6730   -7.5740 P   0  0  0  0  0  0  0  0  0  0  0  0
   -1.5820   20.2260   -7.9280 O   0  0  0  0  0  0  0  0  0  0  0  0
    0.9590   20.7030   -7.5530 O   0  0  0  0  0  0  0  0  0  0  0  0
    0.0610   18.5570   -8.7010 O   0  0  0  0  0  0  0  0  0  0  0  0
  2  1  1  1
  2  3  1  0
  2  4  1  0
  3  5  1  0
  3  6  1  6
  4  7  1  0
  5  8  1  0
  6  9  1  0
  8  9  1  0
  5 10  1  1
  7 10  1  0
  8 11  1  0
 11 12  1  0
 12 13  1  0
 13 14  1  0
 14 15  1  0
 15 16  1  0
 15 17  2  0
 15 18  1  1
 16 19  1  0
 19 20  1  0
 19 21  2  0
 19 22  1  0
M  END
>  <%Rank>  (375) 
28.549618

>  <N_hits>  (375) 
2

>  <submitter_name>  (375) 
nan

>  <original SMILES>  (375) 
nan

>  <∆G_unbound>  (375) 
7.159701

>  <∆G_bound>  (375) 
-9.004744

>  <regarded>  (375) 
5MQX_0_A_δ,mArh-5dus_0_A_β

>  <ref_pdb>  (375) 
nan

>  <smiles>  (375) 
NC1NCNC2C1NCN2CCCOP(=O)(O)OP(=O)(O)O

>  <submitter_email>  (375) 
nan

>  <disregarded>  (375) 


>  <LE>  (375) 
-0.734748

>  <submitter_institution>  (375) 
nan

>  <ref_mols>  (375) 
5MQX_0_A,mArh-5dus_0_A

>  <N_constrained_atoms>  (375) 
19.0

>  <ref_url>  (375) 
nan

>  <method>  (375) 
nan

>  <comRMSD>  (375) 
0.771323

>  <N_unconstrained_atoms>  (375) 
3.0

>  <∆∆G>  (375) 
-16.164446

>  <runtime>  (375) 
27.235577

>  <generation_date>  (375) 
nan

$$$$
mArh-5cb5_G_0_G_α-5CMS_0_D_β
     RDKit          3D

 22 23  0  0  0  0  0  0  0  0999 V2000
   -2.1390   21.5690   -8.8380 C   0  0  0  0  0  0  0  0  0  0  0  0
   -3.3670   22.0510   -8.1250 C   0  0  2  0  0  0  0  0  0  0  0  0
   -4.4280   21.1380   -8.3810 O   0  0  0  0  0  0  0  0  0  0  0  0
   -3.9660   23.3880   -8.5350 C   0  0  1  0  0  0  0  0  0  0  0  0
   -4.0760   23.5200   -9.9610 O   0  0  0  0  0  0  0  0  0  0  0  0
   -5.4710   21.7280   -7.6350 C   0  0  2  0  0  0  0  0  0  0  0  0
   -5.3760   23.2480   -7.9490 C   0  0  1  0  0  0  0  0  0  0  0  0
   -5.2280   21.4930   -6.2420 O   0  0  0  0  0  0  0  0  0  0  0  0
   -5.5800   24.0870   -6.8050 O   0  0  0  0  0  0  0  0  0  0  0  0
   -3.8040   21.4830   -5.9060 C   0  0  0  0  0  0  0  0  0  0  0  0
   -3.1030   20.1150   -6.0770 C   0  0  0  0  0  0  0  0  0  0  0  0
   -1.6740   20.0360   -6.6140 C   0  0  0  0  0  0  0  0  0  0  0  0
   -1.1820   18.5630   -6.6420 C   0  0  0  0  0  0  0  0  0  0  0  0
   -0.8620   17.8880   -5.2790 C   0  0  0  0  0  0  0  0  0  0  0  0
    0.5310   17.2070   -5.2410 C   0  0  0  0  0  0  0  0  0  0  0  0
    0.6990   15.8730   -4.4410 C   0  0  1  0  0  0  0  0  0  0  0  0
   -0.0640   15.9340   -3.2150 O   0  0  0  0  0  0  0  0  0  0  0  0
    0.3000   14.5360   -5.1060 C   0  0  1  0  0  0  0  0  0  0  0  0
    1.2840   13.5150   -5.0850 O   0  0  0  0  0  0  0  0  0  0  0  0
   -0.6780   14.6630   -2.9870 C   0  0  0  0  0  0  0  0  0  0  0  0
   -0.9420   14.0850   -4.3560 C   0  0  2  0  0  0  0  0  0  0  0  0
   -1.0430   12.6680   -4.3750 O   0  0  0  0  0  0  0  0  0  0  0  0
  2  1  1  6
  2  3  1  0
  2  4  1  0
  4  5  1  6
  3  6  1  0
  4  7  1  0
  6  7  1  0
  6  8  1  1
  7  9  1  1
  8 10  1  0
 10 11  1  0
 11 12  1  0
 12 13  1  0
 13 14  1  0
 14 15  1  0
 16 15  1  6
 16 17  1  0
 16 18  1  0
 18 19  1  1
 17 20  1  0
 18 21  1  0
 20 21  1  0
 21 22  1  1
M  END
>  <%Rank>  (376) 
28.625954

>  <N_hits>  (376) 
2

>  <submitter_name>  (376) 
nan

>  <original SMILES>  (376) 
nan

>  <∆G_unbound>  (376) 
0.187336

>  <∆G_bound>  (376) 
-9.796472

>  <regarded>  (376) 
mArh-5cb5_G_0_G_α,5CMS_0_D_β

>  <ref_pdb>  (376) 
nan

>  <smiles>  (376) 
CC1OC(OCCCCCCC2OCC(O)C2O)C(O)C1O

>  <submitter_email>  (376) 
nan

>  <disregarded>  (376) 


>  <LE>  (376) 
-0.453809

>  <submitter_institution>  (376) 
nan

>  <ref_mols>  (376) 
mArh-5cb5_G_0_G,5CMS_0_D

>  <N_constrained_atoms>  (376) 
17.0

>  <ref_url>  (376) 
nan

>  <method>  (376) 
nan

>  <comRMSD>  (376) 
0.521523

>  <N_unconstrained_atoms>  (376) 
5.0

>  <∆∆G>  (376) 
-9.983808

>  <runtime>  (376) 
43.32019

>  <generation_date>  (376) 
nan

$$$$
5CB5_0_H_α-mArh-5cms_C_2_C_β
     RDKit          3D

 17 17  0  0  0  0  0  0  0  0999 V2000
   -1.8170   21.4110   -7.4660 C   0  0  0  0  0  0  0  0  0  0  0  0
   -0.5550   20.1340   -7.7410 P   0  0  2  0  0  0  0  0  0  0  0  0
   -0.5150   19.0840   -6.5410 O   0  0  0  0  0  0  0  0  0  0  0  0
   -2.9220   21.7450   -8.4820 C   0  0  1  0  0  0  0  0  0  0  0  0
    0.8000   20.6940   -7.9400 O   0  0  0  0  0  0  0  0  0  0  0  0
   -0.9830   19.0850   -8.8600 O   0  0  0  0  0  0  0  0  0  0  0  0
   -4.1110   21.0980   -8.0780 O   0  0  0  0  0  0  0  0  0  0  0  0
   -3.4620   23.1880   -8.4840 C   0  0  1  0  0  0  0  0  0  0  0  0
   -4.3520   23.4050   -9.5880 O   0  0  0  0  0  0  0  0  0  0  0  0
   -1.7160   18.1760   -6.0430 P   0  0  0  0  0  0  0  0  0  0  0  0
   -4.5440   21.7790   -6.8940 C   0  0  1  0  0  0  0  0  0  0  0  0
   -4.2210   23.2600   -7.1470 C   0  0  2  0  0  0  0  0  0  0  0  0
   -5.9090   21.5200   -6.6100 O   0  0  0  0  0  0  0  0  0  0  0  0
   -5.4400   24.0270   -7.2620 O   0  0  0  0  0  0  0  0  0  0  0  0
   -1.0470   16.9210   -5.3260 O   0  0  0  0  0  0  0  0  0  0  0  0
   -2.7690   17.7800   -6.9940 O   0  0  0  0  0  0  0  0  0  0  0  0
   -2.2210   19.0630   -4.8280 O   0  0  0  0  0  0  0  0  0  0  0  0
  1  2  1  0
  2  3  1  0
  4  1  1  1
  2  5  2  0
  2  6  1  6
  4  7  1  0
  4  8  1  0
  8  9  1  6
  3 10  1  0
  7 11  1  0
  8 12  1  0
 11 12  1  0
 11 13  1  6
 12 14  1  6
 10 15  1  0
 10 16  2  0
 10 17  1  0
M  END
>  <%Rank>  (377) 
28.70229

>  <N_hits>  (377) 
2

>  <submitter_name>  (377) 
nan

>  <original SMILES>  (377) 
nan

>  <∆G_unbound>  (377) 
1.703844

>  <∆G_bound>  (377) 
-11.500812

>  <regarded>  (377) 
5CB5_0_H_α,mArh-5cms_C_2_C_β

>  <ref_pdb>  (377) 
nan

>  <smiles>  (377) 
O=P(O)(O)OP(=O)(O)CC1OC(O)C(O)C1O

>  <submitter_email>  (377) 
nan

>  <disregarded>  (377) 


>  <LE>  (377) 
-0.776744

>  <submitter_institution>  (377) 
nan

>  <ref_mols>  (377) 
5CB5_0_H,mArh-5cms_C_2_C

>  <N_constrained_atoms>  (377) 
17.0

>  <ref_url>  (377) 
nan

>  <method>  (377) 
nan

>  <comRMSD>  (377) 
0.83111

>  <N_unconstrained_atoms>  (377) 
0.0

>  <∆∆G>  (377) 
-13.204656

>  <runtime>  (377) 
32.718864

>  <generation_date>  (377) 
nan

$$$$
mArh-5cb5_M_1_M_γ-5CB5_0_J_β
     RDKit          3D

 16 16  0  0  0  0  0  0  0  0999 V2000
   -0.9630   12.8060   -4.0230 O   0  0  0  0  0  0  0  0  0  0  0  0
   -0.2170   13.9760   -3.9140 C   0  0  2  0  0  0  0  0  0  0  0  0
   -0.8790   15.0370   -3.0980 C   0  0  0  0  0  0  0  0  0  0  0  0
   -0.0790   14.7160   -5.2060 C   0  0  2  0  0  0  0  0  0  0  0  0
    0.9060   14.0280   -5.9120 O   0  0  0  0  0  0  0  0  0  0  0  0
   -0.1660   16.2030   -3.4550 O   0  0  0  0  0  0  0  0  0  0  0  0
    0.3950   16.0520   -4.7260 C   0  0  2  0  0  0  0  0  0  0  0  0
    0.1320   17.3290   -5.5920 C   0  0  0  0  0  0  0  0  0  0  0  0
   -1.4760   18.0430   -5.7140 P   0  0  0  0  0  0  0  0  0  0  0  0
   -1.2670   19.2740   -6.6270 O   0  0  0  0  0  0  0  0  0  0  0  0
   -2.5880   17.5190   -6.8840 O   0  0  0  0  0  0  0  0  0  0  0  0
   -2.0170   19.0940   -4.6430 O   0  0  0  0  0  0  0  0  0  0  0  0
   -0.1880   19.5900   -7.7570 P   0  0  0  0  0  0  0  0  0  0  0  0
   -1.2330   20.3250   -8.6090 O   0  0  0  0  0  0  0  0  0  0  0  0
    0.7140   21.0090   -7.7960 O   0  0  0  0  0  0  0  0  0  0  0  0
    0.1210   18.4650   -8.9010 O   0  0  0  0  0  0  0  0  0  0  0  0
  2  1  1  6
  2  3  1  0
  2  4  1  0
  4  5  1  6
  3  6  1  0
  4  7  1  0
  6  7  1  0
  7  8  1  6
  8  9  1  0
  9 10  1  0
  9 11  1  0
  9 12  1  0
 10 13  1  0
 13 14  1  0
 13 15  1  0
 13 16  1  0
M  CHG  2  11  -1  15  -1
M  END
>  <%Rank>  (378) 
28.778626

>  <N_hits>  (378) 
2

>  <submitter_name>  (378) 
nan

>  <original SMILES>  (378) 
nan

>  <∆G_unbound>  (378) 
0.683631

>  <∆G_bound>  (378) 
-7.691285

>  <regarded>  (378) 
mArh-5cb5_M_1_M_γ,5CB5_0_J_β

>  <ref_pdb>  (378) 
nan

>  <smiles>  (378) 
[O-][PH](O)(O)O[PH]([O-])(O)CC1OCC(O)C1O

>  <submitter_email>  (378) 
nan

>  <disregarded>  (378) 


>  <LE>  (378) 
-0.523432

>  <submitter_institution>  (378) 
nan

>  <ref_mols>  (378) 
mArh-5cb5_M_1_M,5CB5_0_J

>  <N_constrained_atoms>  (378) 
16.0

>  <ref_url>  (378) 
nan

>  <method>  (378) 
nan

>  <comRMSD>  (378) 
0.683351

>  <N_unconstrained_atoms>  (378) 
0.0

>  <∆∆G>  (378) 
-8.374916

>  <runtime>  (378) 
34.6865

>  <generation_date>  (378) 
nan

$$$$
5CB5_0_Q_γ-mArh-x0104_0_A_α
     RDKit          3D

 23 24  0  0  0  0  0  0  0  0999 V2000
   -0.7250   12.8820   -4.1540 O   0  0  0  0  0  0  0  0  0  0  0  0
   -0.8100   14.2500   -4.5850 C   0  0  1  0  0  0  0  0  0  0  0  0
   -1.0550   15.1580   -3.3820 C   0  0  2  0  0  0  0  0  0  0  0  0
    0.5320   14.6920   -5.1420 C   0  0  2  0  0  0  0  0  0  0  0  0
    1.5550   13.7590   -4.8270 O   0  0  0  0  0  0  0  0  0  0  0  0
   -2.4320   15.8210   -3.3880 C   0  0  0  0  0  0  0  0  0  0  0  0
   -0.0610   16.2040   -3.3810 O   0  0  0  0  0  0  0  0  0  0  0  0
    0.7680   16.0840   -4.5490 C   0  0  2  0  0  0  0  0  0  0  0  0
    0.4570   17.2280   -5.5010 C   0  0  0  0  0  0  0  0  0  0  0  0
   -3.5540   15.0360   -2.7010 C   0  0  0  0  0  0  0  0  0  0  0  0
   -3.6040   15.3540   -1.2030 C   0  0  0  0  0  0  0  0  0  0  0  0
   -5.0320   15.4970   -0.6670 C   0  0  0  0  0  0  0  0  0  0  0  0
   -5.2450   14.8740    0.7170 C   0  0  0  0  0  0  0  0  0  0  0  0
   -6.6880   14.5080    1.1050 C   0  0  0  0  0  0  0  0  0  0  0  0
   -6.9420   14.6180    2.6070 C   0  0  0  0  0  0  0  0  0  0  0  0
   -8.2800   15.1350    3.0700 C   0  0  0  0  0  0  0  0  0  0  0  0
   -8.2730   15.2640    4.4510 N   0  0  0  0  0  0  0  0  0  0  0  0
   -9.1890   15.3840    2.2930 O   0  0  0  0  0  0  0  0  0  0  0  0
   -9.3650   15.1820    5.2860 C   0  0  0  0  0  0  0  0  0  0  0  0
   -9.3290   15.2180    6.6640 C   0  0  0  0  0  0  0  0  0  0  0  0
  -10.9470   15.0200    4.6950 S   0  0  0  0  0  0  0  0  0  0  0  0
  -10.6320   15.1090    7.2360 C   0  0  0  0  0  0  0  0  0  0  0  0
  -11.6060   14.9950    6.2720 C   0  0  0  0  0  0  0  0  0  0  0  0
  2  1  1  1
  2  3  1  0
  2  4  1  0
  4  5  1  1
  3  6  1  6
  3  7  1  0
  4  8  1  0
  7  8  1  0
  8  9  1  6
  6 10  1  0
 10 11  1  0
 11 12  1  0
 12 13  1  0
 13 14  1  0
 14 15  1  0
 15 16  1  0
 16 17  1  0
 16 18  2  0
 17 19  1  0
 19 20  2  0
 19 21  1  0
 20 22  1  0
 21 23  1  0
 22 23  2  0
M  END
>  <%Rank>  (379) 
28.854962

>  <N_hits>  (379) 
2

>  <submitter_name>  (379) 
nan

>  <original SMILES>  (379) 
nan

>  <∆G_unbound>  (379) 
0.183254

>  <∆G_bound>  (379) 
-6.705137

>  <regarded>  (379) 
5CB5_0_Q_γ,mArh-x0104_0_A_α

>  <ref_pdb>  (379) 
nan

>  <smiles>  (379) 
CC1OC(CCCCCCCC(=O)Nc2cccs2)C(O)C1O

>  <submitter_email>  (379) 
nan

>  <disregarded>  (379) 


>  <LE>  (379) 
-0.299495

>  <submitter_institution>  (379) 
nan

>  <ref_mols>  (379) 
5CB5_0_Q,mArh-x0104_0_A

>  <N_constrained_atoms>  (379) 
16.0

>  <ref_url>  (379) 
nan

>  <method>  (379) 
nan

>  <comRMSD>  (379) 
0.353062

>  <N_unconstrained_atoms>  (379) 
7.0

>  <∆∆G>  (379) 
-6.88839

>  <runtime>  (379) 
35.506263

>  <generation_date>  (379) 
nan

$$$$
5CMS_0_C_δ-3Q6Z_0_A_β
     RDKit          3D

 21 22  0  0  0  0  0  0  0  0999 V2000
   -3.8190   15.6870    1.5810 N   0  0  0  0  0  0  0  0  0  0  0  0
   -2.7340   14.8860    0.9910 C   0  0  1  0  0  0  0  0  0  0  0  0
   -2.5140   15.4500   -0.3900 C   0  0  1  0  0  0  0  0  0  0  0  0
   -1.5320   15.2610    1.6720 N   0  0  0  0  0  0  0  0  0  0  0  0
   -1.1940   15.0210   -0.9520 C   0  0  2  0  0  0  0  0  0  0  0  0
   -3.5110   14.9780   -1.2730 N   0  0  0  0  0  0  0  0  0  0  0  0
   -0.3310   14.6370    1.2070 C   0  0  0  0  0  0  0  0  0  0  0  0
   -1.5260   14.3900   -2.1810 N   0  0  0  0  0  0  0  0  0  0  0  0
   -2.8780   14.6540   -2.4960 C   0  0  2  0  0  0  0  0  0  0  0  0
   -0.5630   14.0470   -0.0810 N   0  0  0  0  0  0  0  0  0  0  0  0
   -2.9920   15.6590   -3.5990 C   0  0  0  0  0  0  0  0  0  0  0  0
   -1.7120   16.4690   -3.7170 C   0  0  0  0  0  0  0  0  0  0  0  0
   -1.8820   17.7530   -4.1990 O   0  0  0  0  0  0  0  0  0  0  0  0
   -1.5430   18.0260   -5.7250 P   0  0  0  0  0  0  0  0  0  0  0  0
   -0.2600   18.8210   -6.2960 O   0  0  0  0  0  0  0  0  0  0  0  0
   -0.7560   16.7220   -5.7770 O   0  0  0  0  0  0  0  0  0  0  0  0
   -2.6670   17.3810   -6.8310 O   0  0  0  0  0  0  0  0  0  0  0  0
   -0.2690   19.8860   -7.4490 P   0  0  0  0  0  0  0  0  0  0  0  0
   -1.6450   20.3260   -8.2900 O   0  0  0  0  0  0  0  0  0  0  0  0
    0.1530   18.9040   -8.5670 O   0  0  0  0  0  0  0  0  0  0  0  0
    1.0790   20.8500   -7.6890 O   0  0  0  0  0  0  0  0  0  0  0  0
  2  1  1  1
  2  3  1  0
  2  4  1  0
  3  5  1  0
  3  6  1  6
  4  7  1  0
  5  8  1  6
  6  9  1  0
  8  9  1  0
  5 10  1  0
  7 10  1  0
  9 11  1  6
 11 12  1  0
 12 13  1  0
 13 14  1  0
 14 15  1  0
 14 16  1  0
 14 17  1  0
 15 18  1  0
 18 19  1  0
 18 20  1  0
 18 21  1  0
M  CHG  1  20  -1
M  END
>  <%Rank>  (380) 
28.931298

>  <N_hits>  (380) 
2

>  <submitter_name>  (380) 
nan

>  <original SMILES>  (380) 
nan

>  <∆G_unbound>  (380) 
0.880488

>  <∆G_bound>  (380) 
-6.707752

>  <regarded>  (380) 
5CMS_0_C_δ,3Q6Z_0_A_β

>  <ref_pdb>  (380) 
nan

>  <smiles>  (380) 
NC1NCNC2NC(CCO[PH](O)(O)O[PH]([O-])(O)O)NC12

>  <submitter_email>  (380) 
nan

>  <disregarded>  (380) 


>  <LE>  (380) 
-0.361345

>  <submitter_institution>  (380) 
nan

>  <ref_mols>  (380) 
5CMS_0_C,3Q6Z_0_A

>  <N_constrained_atoms>  (380) 
19.0

>  <ref_url>  (380) 
nan

>  <method>  (380) 
nan

>  <comRMSD>  (380) 
0.615686

>  <N_unconstrained_atoms>  (380) 
2.0

>  <∆∆G>  (380) 
-7.58824

>  <runtime>  (380) 
35.949146

>  <generation_date>  (380) 
nan

$$$$
mArh-6mea_A_0_A_β-5CMS_0_K_β
     RDKit          3D

  9  8  0  0  0  0  0  0  0  0999 V2000
   -1.7270   20.2920   -7.9740 O   0  0  0  0  0  0  0  0  0  0  0  0
   -0.2590   19.7580   -7.6450 P   0  0  0  0  0  0  0  0  0  0  0  0
   -0.3590   18.8830   -6.3500 O   0  0  0  0  0  0  0  0  0  0  0  0
    0.7640   20.8300   -7.6550 O   0  0  0  0  0  0  0  0  0  0  0  0
   -0.0220   18.6740   -8.8000 O   0  0  0  0  0  0  0  0  0  0  0  0
   -1.6030   18.0890   -5.8040 P   0  0  0  0  0  0  0  0  0  0  0  0
   -0.9910   16.7770   -5.1520 O   0  0  0  0  0  0  0  0  0  0  0  0
   -2.6600   17.8230   -6.8060 O   0  0  0  0  0  0  0  0  0  0  0  0
   -2.0520   18.9740   -4.5700 O   0  0  0  0  0  0  0  0  0  0  0  0
  1  2  1  0
  2  3  1  0
  2  4  2  0
  2  5  1  0
  3  6  1  0
  6  7  1  0
  6  8  2  0
  6  9  1  0
M  END
>  <%Rank>  (381) 
29.007634

>  <N_hits>  (381) 
2

>  <submitter_name>  (381) 
nan

>  <original SMILES>  (381) 
nan

>  <∆G_unbound>  (381) 
0.687887

>  <∆G_bound>  (381) 
-8.352939

>  <regarded>  (381) 
mArh-6mea_A_0_A_β,5CMS_0_K_β

>  <ref_pdb>  (381) 
nan

>  <smiles>  (381) 
O=P(O)(O)OP(=O)(O)O

>  <submitter_email>  (381) 
nan

>  <disregarded>  (381) 


>  <LE>  (381) 
-1.004536

>  <submitter_institution>  (381) 
nan

>  <ref_mols>  (381) 
mArh-6mea_A_0_A,5CMS_0_K

>  <N_constrained_atoms>  (381) 
9.0

>  <ref_url>  (381) 
nan

>  <method>  (381) 
nan

>  <comRMSD>  (381) 
0.726501

>  <N_unconstrained_atoms>  (381) 
0.0

>  <∆∆G>  (381) 
-9.040826

>  <runtime>  (381) 
25.895454

>  <generation_date>  (381) 
nan

$$$$
5CB5_0_J_γ-5CMS_0_F_β
     RDKit          3D

 16 16  0  0  0  0  0  0  0  0999 V2000
   -0.3460   12.5470   -3.8340 O   0  0  0  0  0  0  0  0  0  0  0  0
   -0.7640   13.8660   -3.9270 C   0  0  1  0  0  0  0  0  0  0  0  0
   -0.2720   14.7380   -2.7730 C   0  0  0  0  0  0  0  0  0  0  0  0
   -0.1940   14.5680   -5.1230 C   0  0  2  0  0  0  0  0  0  0  0  0
    1.1600   14.2360   -5.2260 O   0  0  0  0  0  0  0  0  0  0  0  0
    0.1570   15.9380   -3.3790 O   0  0  0  0  0  0  0  0  0  0  0  0
   -0.4500   15.9370   -4.6180 C   0  0  1  0  0  0  0  0  0  0  0  0
   -0.1380   17.1790   -5.4690 C   0  0  0  0  0  0  0  0  0  0  0  0
   -1.6180   18.0750   -5.7380 P   0  0  0  0  0  0  0  0  0  0  0  0
   -1.2550   19.3240   -6.5550 O   0  0  0  0  0  0  0  0  0  0  0  0
   -2.6740   17.7020   -7.0030 O   0  0  0  0  0  0  0  0  0  0  0  0
   -2.1390   19.0810   -4.6310 O   0  0  0  0  0  0  0  0  0  0  0  0
   -0.1750   19.5890   -7.6850 P   0  0  0  0  0  0  0  0  0  0  0  0
   -1.2140   20.1090   -8.6610 O   0  0  0  0  0  0  0  0  0  0  0  0
    0.6050   21.0700   -7.7880 O   0  0  0  0  0  0  0  0  0  0  0  0
    0.2090   18.4420   -8.7800 O   0  0  0  0  0  0  0  0  0  0  0  0
  2  1  1  1
  2  3  1  0
  2  4  1  0
  4  5  1  1
  3  6  1  0
  4  7  1  0
  6  7  1  0
  7  8  1  6
  8  9  1  0
  9 10  1  0
  9 11  1  0
  9 12  1  0
 10 13  1  0
 13 14  1  0
 13 15  1  0
 13 16  1  0
M  CHG  2  11  -1  15  -1
M  END
>  <%Rank>  (382) 
29.083969

>  <N_hits>  (382) 
2

>  <submitter_name>  (382) 
nan

>  <original SMILES>  (382) 
nan

>  <∆G_unbound>  (382) 
0.683631

>  <∆G_bound>  (382) 
-7.410427

>  <regarded>  (382) 
5CB5_0_J_γ,5CMS_0_F_β

>  <ref_pdb>  (382) 
nan

>  <smiles>  (382) 
[O-][PH](O)(O)O[PH]([O-])(O)CC1OCC(O)C1O

>  <submitter_email>  (382) 
nan

>  <disregarded>  (382) 


>  <LE>  (382) 
-0.505879

>  <submitter_institution>  (382) 
nan

>  <ref_mols>  (382) 
5CB5_0_J,5CMS_0_F

>  <N_constrained_atoms>  (382) 
16.0

>  <ref_url>  (382) 
nan

>  <method>  (382) 
nan

>  <comRMSD>  (382) 
0.679281

>  <N_unconstrained_atoms>  (382) 
0.0

>  <∆∆G>  (382) 
-8.094058

>  <runtime>  (382) 
36.221014

>  <generation_date>  (382) 
nan

$$$$
mArh-x0905_0_A_α-mArh-3gqe_A_0_A_α
     RDKit          3D

 20 20  0  0  0  0  0  0  0  0999 V2000
   -6.6450   14.7920   -1.3460 O   0  0  0  0  0  0  0  0  0  0  0  0
   -5.4070   14.9910   -0.8240 C   0  0  0  0  0  0  0  0  0  0  0  0
   -5.4380   15.0840    0.5160 N   0  0  0  0  0  0  0  0  0  0  0  0
   -4.2410   15.0830   -1.6020 C   0  0  0  0  0  0  0  0  0  0  0  0
   -4.1380   14.9770   -3.0980 C   0  0  0  0  0  0  0  0  0  0  0  0
   -4.2550   15.2890    1.1330 C   0  0  0  0  0  0  0  0  0  0  0  0
   -3.0560   15.2940   -0.9100 C   0  0  0  0  0  0  0  0  0  0  0  0
   -2.8360   15.6760   -3.5730 C   0  0  0  0  0  0  0  0  0  0  0  0
   -3.0510   15.4000    0.4670 C   0  0  0  0  0  0  0  0  0  0  0  0
   -2.9360   16.2970   -4.9050 N   0  0  0  0  0  0  0  0  0  0  0  0
   -2.3850   17.4500   -5.1350 C   0  0  0  0  0  0  0  0  0  0  0  0
   -2.3670   18.2840   -6.4070 C   0  0  0  0  0  0  0  0  0  0  0  0
   -1.7550   18.0730   -4.1400 O   0  0  0  0  0  0  0  0  0  0  0  0
   -2.1290   19.7090   -6.1620 N   0  0  0  0  0  0  0  0  0  0  0  0
   -3.2880   20.6270   -6.3630 C   0  0  0  0  0  0  0  0  0  0  0  0
   -0.9080   20.1400   -6.8320 C   0  0  0  0  0  0  0  0  0  0  0  0
   -3.1460   21.8990   -7.2300 C   0  0  0  0  0  0  0  0  0  0  0  0
   -0.7320   19.9730   -8.3280 C   0  0  0  0  0  0  0  0  0  0  0  0
   -4.3140   22.1200   -8.0140 O   0  0  0  0  0  0  0  0  0  0  0  0
   -0.4450   18.6270   -8.6870 O   0  0  0  0  0  0  0  0  0  0  0  0
  1  2  1  0
  2  3  2  0
  2  4  1  0
  4  5  1  0
  3  6  1  0
  4  7  2  0
  5  8  1  0
  6  9  2  0
  7  9  1  0
  8 10  1  0
 10 11  2  3
 11 12  1  0
 11 13  1  0
 12 14  1  0
 14 15  1  0
 14 16  1  0
 15 17  1  0
 16 18  1  0
 17 19  1  0
 18 20  1  0
M  END
>  <%Rank>  (383) 
29.160305

>  <N_hits>  (383) 
2

>  <submitter_name>  (383) 
nan

>  <original SMILES>  (383) 
nan

>  <∆G_unbound>  (383) 
0.499037

>  <∆G_bound>  (383) 
-9.251152

>  <regarded>  (383) 
mArh-x0905_0_A_α,mArh-3gqe_A_0_A_α

>  <ref_pdb>  (383) 
nan

>  <smiles>  (383) 
OCCN(CCO)CC(O)=NCCc1cccnc1O

>  <submitter_email>  (383) 
nan

>  <disregarded>  (383) 


>  <LE>  (383) 
-0.487509

>  <submitter_institution>  (383) 
nan

>  <ref_mols>  (383) 
mArh-x0905_0_A,mArh-3gqe_A_0_A

>  <N_constrained_atoms>  (383) 
18.0

>  <ref_url>  (383) 
nan

>  <method>  (383) 
nan

>  <comRMSD>  (383) 
0.659493

>  <N_unconstrained_atoms>  (383) 
2.0

>  <∆∆G>  (383) 
-9.750189

>  <runtime>  (383) 
64.228555

>  <generation_date>  (383) 
nan

$$$$
mArh-x0417_0_B_α-mArh-5cb5_J_2_J_β
     RDKit          3D

 31 32  0  0  0  0  0  0  0  0999 V2000
   -2.5500   31.1170  -17.1590 N   0  0  0  0  0  0  0  0  0  0  0  0
   -1.3350   31.8580  -17.4690 C   0  0  0  0  0  0  0  0  0  0  0  0
   -2.5900   30.6210  -15.7670 C   0  0  2  0  0  0  0  0  0  0  0  0
   -2.3510   29.1110  -15.7250 C   0  0  0  0  0  0  0  0  0  0  0  0
   -3.9750   30.7360  -15.1300 C   0  0  0  0  0  0  0  0  0  0  0  0
   -4.7340   31.6690  -15.2910 O   0  0  0  0  0  0  0  0  0  0  0  0
   -3.1060   28.6490  -14.4860 C   0  0  0  0  0  0  0  0  0  0  0  0
   -4.2010   29.5860  -14.3650 N   0  0  0  0  0  0  0  0  0  0  0  0
   -5.2910   29.4100  -13.4680 C   0  0  0  0  0  0  0  0  0  0  0  0
   -6.4710   30.1190  -13.7420 C   0  0  0  0  0  0  0  0  0  0  0  0
   -5.2780   28.5840  -12.3290 C   0  0  0  0  0  0  0  0  0  0  0  0
   -4.1660   27.8580  -12.0370 O   0  0  0  0  0  0  0  0  0  0  0  0
   -7.5890   30.0190  -12.9100 C   0  0  0  0  0  0  0  0  0  0  0  0
   -6.4000   28.4970  -11.4950 C   0  0  0  0  0  0  0  0  0  0  0  0
   -4.1220   26.4620  -12.4870 C   0  0  0  0  0  0  0  0  0  0  0  0
   -7.5530   29.2110  -11.7830 C   0  0  0  0  0  0  0  0  0  0  0  0
   -5.1280   25.5430  -11.7240 C   0  0  0  0  0  0  0  0  0  0  0  0
   -4.4690   24.5540  -10.7140 C   0  0  0  0  0  0  0  0  0  0  0  0
   -4.7530   23.0680  -10.8860 C   0  0  0  0  0  0  0  0  0  0  0  0
   -4.1860   22.1210   -9.7830 C   0  0  0  0  0  0  0  0  0  0  0  0
   -3.1610   22.5160   -8.7050 C   0  0  0  0  0  0  0  0  0  0  0  0
   -1.8720   21.6730   -8.7840 C   0  0  0  0  0  0  0  0  0  0  0  0
   -1.8040   20.5000   -7.9730 O   0  0  0  0  0  0  0  0  0  0  0  0
   -0.3010   19.8970   -7.7940 P   0  0  2  0  0  0  0  0  0  0  0  0
   -0.3420   19.0070   -6.5060 O   0  0  0  0  0  0  0  0  0  0  0  0
    0.8150   20.8800   -7.8610 O   0  0  0  0  0  0  0  0  0  0  0  0
   -0.1170   18.7290   -8.8760 O   0  0  0  0  0  0  0  0  0  0  0  0
   -1.6150   18.2830   -5.9530 P   0  0  0  0  0  0  0  0  0  0  0  0
   -1.1040   17.1040   -5.0210 O   0  0  0  0  0  0  0  0  0  0  0  0
   -2.6150   17.8470   -6.9560 O   0  0  0  0  0  0  0  0  0  0  0  0
   -2.2430   19.3090   -4.9170 O   0  0  0  0  0  0  0  0  0  0  0  0
  1  2  1  0
  3  1  1  6
  3  4  1  0
  3  5  1  0
  5  6  2  0
  4  7  1  0
  5  8  1  0
  7  8  1  0
  8  9  1  0
  9 10  2  0
  9 11  1  0
 11 12  1  0
 10 13  1  0
 11 14  2  0
 12 15  1  0
 13 16  2  0
 14 16  1  0
 15 17  1  0
 17 18  1  0
 18 19  1  0
 19 20  1  0
 20 21  1  0
 21 22  1  0
 22 23  1  0
 23 24  1  0
 24 25  1  0
 24 26  2  0
 24 27  1  6
 25 28  1  0
 28 29  1  0
 28 30  2  0
 28 31  1  0
M  END
>  <%Rank>  (384) 
29.236641

>  <N_hits>  (384) 
2

>  <submitter_name>  (384) 
nan

>  <original SMILES>  (384) 
nan

>  <∆G_unbound>  (384) 
1.33392

>  <∆G_bound>  (384) 
-14.90085

>  <regarded>  (384) 
mArh-x0417_0_B_α,mArh-5cb5_J_2_J_β

>  <ref_pdb>  (384) 
nan

>  <smiles>  (384) 
CNC1CCN(c2ccccc2OCCCCCCCOP(=O)(O)OP(=O)(O)O)C1=O

>  <submitter_email>  (384) 
nan

>  <disregarded>  (384) 


>  <LE>  (384) 
-0.523702

>  <submitter_institution>  (384) 
nan

>  <ref_mols>  (384) 
mArh-x0417_0_B,mArh-5cb5_J_2_J

>  <N_constrained_atoms>  (384) 
24.0

>  <ref_url>  (384) 
nan

>  <method>  (384) 
nan

>  <comRMSD>  (384) 
0.695281

>  <N_unconstrained_atoms>  (384) 
7.0

>  <∆∆G>  (384) 
-16.23477

>  <runtime>  (384) 
45.215331

>  <generation_date>  (384) 
nan

$$$$
mArh-6woj_D_0_D_α-mArh-5cb5_R_0_R_γ
     RDKit          3D

 22 23  0  0  0  0  0  0  0  0999 V2000
   -1.9200   21.7310   -8.6670 C   0  0  0  0  0  0  0  0  0  0  0  0
   -2.9220   22.3680   -7.7820 C   0  0  2  0  0  0  0  0  0  0  0  0
   -3.9710   21.4530   -7.7140 O   0  0  0  0  0  0  0  0  0  0  0  0
   -3.6860   23.7090   -8.0290 C   0  0  1  0  0  0  0  0  0  0  0  0
   -4.1000   23.9580   -9.3730 O   0  0  0  0  0  0  0  0  0  0  0  0
   -4.4180   22.1730   -6.6500 C   0  0  1  0  0  0  0  0  0  0  0  0
   -4.9750   23.4340   -7.2140 C   0  0  1  0  0  0  0  0  0  0  0  0
   -5.0050   21.4370   -5.6660 O   0  0  0  0  0  0  0  0  0  0  0  0
   -5.3030   24.3970   -6.2100 O   0  0  0  0  0  0  0  0  0  0  0  0
   -3.7390   21.0790   -5.1110 C   0  0  0  0  0  0  0  0  0  0  0  0
   -2.7090   20.3760   -6.0330 C   0  0  0  0  0  0  0  0  0  0  0  0
   -1.9580   19.2050   -5.3720 C   0  0  0  0  0  0  0  0  0  0  0  0
   -0.6140   18.9020   -6.0330 C   0  0  0  0  0  0  0  0  0  0  0  0
    0.3880   18.2530   -5.0580 C   0  0  0  0  0  0  0  0  0  0  0  0
    0.6930   16.8370   -5.4890 C   0  0  0  0  0  0  0  0  0  0  0  0
    0.8880   15.7710   -4.4120 C   0  0  1  0  0  0  0  0  0  0  0  0
   -0.0020   15.9960   -3.2900 O   0  0  0  0  0  0  0  0  0  0  0  0
    0.5610   14.3650   -4.9410 C   0  0  1  0  0  0  0  0  0  0  0  0
    1.4770   13.3380   -4.6160 O   0  0  0  0  0  0  0  0  0  0  0  0
   -0.6930   14.7710   -3.0180 C   0  0  0  0  0  0  0  0  0  0  0  0
   -0.8090   14.0800   -4.3550 C   0  0  2  0  0  0  0  0  0  0  0  0
   -1.0240   12.6820   -4.2760 O   0  0  0  0  0  0  0  0  0  0  0  0
  2  1  1  6
  2  3  1  0
  2  4  1  0
  4  5  1  6
  3  6  1  0
  4  7  1  0
  6  7  1  0
  6  8  1  6
  7  9  1  1
  8 10  1  0
 10 11  1  0
 11 12  1  0
 12 13  1  0
 13 14  1  0
 14 15  1  0
 16 15  1  6
 16 17  1  0
 16 18  1  0
 18 19  1  1
 17 20  1  0
 18 21  1  0
 20 21  1  0
 21 22  1  1
M  END
>  <%Rank>  (385) 
29.312977

>  <N_hits>  (385) 
2

>  <submitter_name>  (385) 
nan

>  <original SMILES>  (385) 
nan

>  <∆G_unbound>  (385) 
0.187336

>  <∆G_bound>  (385) 
-11.237465

>  <regarded>  (385) 
mArh-6woj_D_0_D_α,mArh-5cb5_R_0_R_γ

>  <ref_pdb>  (385) 
nan

>  <smiles>  (385) 
CC1OC(OCCCCCCC2OCC(O)C2O)C(O)C1O

>  <submitter_email>  (385) 
nan

>  <disregarded>  (385) 


>  <LE>  (385) 
-0.519309

>  <submitter_institution>  (385) 
nan

>  <ref_mols>  (385) 
mArh-6woj_D_0_D,mArh-5cb5_R_0_R

>  <N_constrained_atoms>  (385) 
17.0

>  <ref_url>  (385) 
nan

>  <method>  (385) 
nan

>  <comRMSD>  (385) 
0.563601

>  <N_unconstrained_atoms>  (385) 
5.0

>  <∆∆G>  (385) 
-11.424801

>  <runtime>  (385) 
45.800265

>  <generation_date>  (385) 
nan

$$$$
mArh-5cms_Q_16_Q_α-mArh-5cms_E_5_E_γ
     RDKit          3D

 23 24  0  0  0  0  0  0  0  0999 V2000
   -1.5930   22.2920   -7.7590 C   0  0  0  0  0  0  0  0  0  0  0  0
   -1.4370   22.1750   -9.2630 C   0  0  1  0  0  0  0  0  0  0  0  0
   -2.7050   21.7990   -9.7990 O   0  0  0  0  0  0  0  0  0  0  0  0
   -1.0580   23.5000   -9.9370 C   0  0  1  0  0  0  0  0  0  0  0  0
    0.3190   23.5590  -10.2230 O   0  0  0  0  0  0  0  0  0  0  0  0
   -2.7810   22.3360  -11.1190 C   0  0  2  0  0  0  0  0  0  0  0  0
   -1.7030   23.4080  -11.2790 C   0  0  1  0  0  0  0  0  0  0  0  0
   -4.0750   22.8530  -11.3670 O   0  0  0  0  0  0  0  0  0  0  0  0
   -2.2270   24.6820  -11.6880 O   0  0  0  0  0  0  0  0  0  0  0  0
    0.9990   23.5880   -9.0080 C   0  0  0  0  0  0  0  0  0  0  0  0
    1.6420   22.2610   -8.8230 C   0  0  0  0  0  0  0  0  0  0  0  0
    1.1200   21.5500   -7.5820 C   0  0  0  0  0  0  0  0  0  0  0  0
    0.2290   20.2560   -7.6340 C   0  0  0  0  0  0  0  0  0  0  0  0
    0.8110   19.0070   -6.8940 C   0  0  0  0  0  0  0  0  0  0  0  0
   -0.0630   18.1120   -5.9780 C   0  0  0  0  0  0  0  0  0  0  0  0
    0.6590   16.9060   -5.2850 C   0  0  0  0  0  0  0  0  0  0  0  0
   -0.1490   15.6730   -4.7900 C   0  0  2  0  0  0  0  0  0  0  0  0
   -0.4260   15.7460   -3.3760 O   0  0  0  0  0  0  0  0  0  0  0  0
    0.3960   14.2450   -4.8790 C   0  0  2  0  0  0  0  0  0  0  0  0
    0.6170   13.6790   -6.1490 O   0  0  0  0  0  0  0  0  0  0  0  0
   -0.8790   14.4390   -2.9630 C   0  0  0  0  0  0  0  0  0  0  0  0
   -0.7810   13.5690   -4.2050 C   0  0  2  0  0  0  0  0  0  0  0  0
   -0.5620   12.1860   -3.9800 O   0  0  0  0  0  0  0  0  0  0  0  0
  2  1  1  1
  2  3  1  0
  2  4  1  0
  4  5  1  6
  3  6  1  0
  4  7  1  0
  6  7  1  0
  6  8  1  1
  7  9  1  1
  5 10  1  0
 10 11  1  0
 11 12  1  0
 12 13  1  0
 13 14  1  0
 14 15  1  0
 15 16  1  0
 17 16  1  1
 17 18  1  0
 17 19  1  0
 19 20  1  6
 18 21  1  0
 19 22  1  0
 21 22  1  0
 22 23  1  1
M  END
>  <%Rank>  (386) 
29.389313

>  <N_hits>  (386) 
2

>  <submitter_name>  (386) 
nan

>  <original SMILES>  (386) 
nan

>  <∆G_unbound>  (386) 
0.438128

>  <∆G_bound>  (386) 
-9.455054

>  <regarded>  (386) 
mArh-5cms_Q_16_Q_α,mArh-5cms_E_5_E_γ

>  <ref_pdb>  (386) 
nan

>  <smiles>  (386) 
CC1OC(O)C(O)C1OCCCCCCCC1OCC(O)C1O

>  <submitter_email>  (386) 
nan

>  <disregarded>  (386) 


>  <LE>  (386) 
-0.430138

>  <submitter_institution>  (386) 
nan

>  <ref_mols>  (386) 
mArh-5cms_Q_16_Q,mArh-5cms_E_5_E

>  <N_constrained_atoms>  (386) 
17.0

>  <ref_url>  (386) 
nan

>  <method>  (386) 
nan

>  <comRMSD>  (386) 
0.489795

>  <N_unconstrained_atoms>  (386) 
6.0

>  <∆∆G>  (386) 
-9.893182

>  <runtime>  (386) 
38.78069

>  <generation_date>  (386) 
nan

$$$$
mArh-5cb5_F_1_F_γ-mArh-mac-242_0_A_α
     RDKit          3D

 18 20  0  0  0  0  0  0  0  0999 V2000
   -1.3800   12.4790   -4.0870 O   0  0  0  0  0  0  0  0  0  0  0  0
   -0.4850   13.4940   -3.6500 C   0  0  2  0  0  0  0  0  0  0  0  0
   -1.1160   14.5470   -2.6970 C   0  0  2  0  0  0  0  0  0  0  0  0
    0.0330   14.3060   -4.8460 C   0  0  2  0  0  0  0  0  0  0  0  0
    1.3580   13.9140   -5.1700 O   0  0  0  0  0  0  0  0  0  0  0  0
   -0.2300   15.6770   -2.9460 O   0  0  0  0  0  0  0  0  0  0  0  0
   -0.1680   15.7530   -4.3890 C   0  0  1  0  0  0  0  0  0  0  0  0
   -1.2920   14.0250   -1.1690 C   0  0  2  0  0  0  0  0  0  0  0  0
   -2.4340   14.9500   -3.3230 C   0  0  0  0  0  0  0  0  0  0  0  0
    0.8410   16.7820   -4.8750 C   0  0  0  0  0  0  0  0  0  0  0  0
   -2.7010   14.2690   -0.4480 C   0  0  1  0  0  0  0  0  0  0  0  0
   -0.1230   14.2740   -0.1940 C   0  0  0  0  0  0  0  0  0  0  0  0
   -3.5800   15.1590   -2.6920 C   0  0  0  0  0  0  0  0  0  0  0  0
   -2.6100   14.8420    0.9870 C   0  0  1  0  0  0  0  0  0  0  0  0
   -0.3350   14.3050    1.1390 C   0  0  0  0  0  0  0  0  0  0  0  0
   -3.7610   15.0370   -1.2350 C   0  0  0  0  0  0  0  0  0  0  0  0
   -3.9320   14.8640    1.5840 N   0  0  0  0  0  0  0  0  0  0  0  0
   -1.5670   14.1440    1.6540 N   0  0  0  0  0  0  0  0  0  0  0  0
  2  1  1  6
  2  3  1  0
  2  4  1  0
  4  5  1  1
  3  6  1  0
  4  7  1  0
  6  7  1  0
  3  8  1  0
  3  9  1  6
  7 10  1  1
  8 11  1  0
  8 12  1  1
  9 13  2  0
 11 14  1  0
 12 15  2  0
 11 16  1  6
 13 16  1  0
 14 17  1  1
 14 18  1  0
 15 18  1  0
M  END
>  <%Rank>  (387) 
29.465649

>  <N_hits>  (387) 
2

>  <submitter_name>  (387) 
nan

>  <original SMILES>  (387) 
nan

>  <∆G_unbound>  (387) 
0.664419

>  <∆G_bound>  (387) 
-5.612421

>  <regarded>  (387) 
mArh-5cb5_F_1_F_γ,mArh-mac-242_0_A_α

>  <ref_pdb>  (387) 
nan

>  <smiles>  (387) 
CC1OC2(C=CCC3C(N)NC=CC32)C(O)C1O

>  <submitter_email>  (387) 
nan

>  <disregarded>  (387) 


>  <LE>  (387) 
-0.348713

>  <submitter_institution>  (387) 
nan

>  <ref_mols>  (387) 
mArh-5cb5_F_1_F,mArh-mac-242_0_A

>  <N_constrained_atoms>  (387) 
18.0

>  <ref_url>  (387) 
nan

>  <method>  (387) 
nan

>  <comRMSD>  (387) 
0.647318

>  <N_unconstrained_atoms>  (387) 
0.0

>  <∆∆G>  (387) 
-6.276841

>  <runtime>  (387) 
24.895623

>  <generation_date>  (387) 
nan

$$$$
5CMS_0_Q_β-mArh-EU0123_0_A_α
     RDKit          3D

 23 23  0  0  0  0  0  0  0  0999 V2000
   -1.2780   20.1950   -7.0120 O   0  0  0  0  0  0  0  0  0  0  0  0
   -0.3270   19.3060   -7.8230 P   0  0  0  0  0  0  0  0  0  0  0  0
   -0.8240   17.9510   -7.1330 O   0  0  0  0  0  0  0  0  0  0  0  0
    0.9910   20.0640   -7.3220 O   0  0  0  0  0  0  0  0  0  0  0  0
   -1.1180   19.8360   -9.1700 O   0  0  0  0  0  0  0  0  0  0  0  0
   -2.0520   17.8740   -6.1300 P   0  0  0  0  0  0  0  0  0  0  0  0
   -1.2870   16.9510   -5.1920 O   0  0  0  0  0  0  0  0  0  0  0  0
   -3.2370   16.7390   -6.2510 O   0  0  0  0  0  0  0  0  0  0  0  0
   -2.1840   19.0370   -4.9850 O   0  0  0  0  0  0  0  0  0  0  0  0
   -2.0300   15.8070   -4.6810 C   0  0  0  0  0  0  0  0  0  0  0  0
   -1.2760   15.2170   -3.4840 C   0  0  0  0  0  0  0  0  0  0  0  0
   -1.5550   15.9310   -2.1320 C   0  0  0  0  0  0  0  0  0  0  0  0
   -1.8420   14.8580   -1.0570 C   0  0  0  0  0  0  0  0  0  0  0  0
   -2.1860   15.4510    0.2560 C   0  0  0  0  0  0  0  0  0  0  0  0
   -3.4390   14.8540    0.9340 C   0  0  0  0  0  0  0  0  0  0  0  0
   -4.6930   14.9530    0.1240 C   0  0  0  0  0  0  0  0  0  0  0  0
   -4.7700   15.4070   -1.1810 C   0  0  0  0  0  0  0  0  0  0  0  0
   -5.9550   14.5840    0.6140 C   0  0  0  0  0  0  0  0  0  0  0  0
   -5.9850   14.0650    2.0690 C   0  0  0  0  0  0  0  0  0  0  0  0
   -5.9700   15.4450   -1.8320 C   0  0  0  0  0  0  0  0  0  0  0  0
   -7.1140   14.6440   -0.0670 C   0  0  0  0  0  0  0  0  0  0  0  0
   -6.4530   14.8740    2.9950 O   0  0  0  0  0  0  0  0  0  0  0  0
   -7.1040   15.0930   -1.3390 N   0  0  0  0  0  0  0  0  0  0  0  0
  1  2  1  0
  2  3  1  0
  2  4  1  0
  2  5  1  0
  3  6  1  0
  6  7  1  0
  6  8  1  0
  6  9  1  0
  7 10  1  0
 10 11  1  0
 11 12  1  0
 12 13  1  0
 13 14  1  0
 14 15  1  0
 15 16  1  0
 16 17  2  0
 16 18  1  0
 18 19  1  0
 17 20  1  0
 18 21  2  0
 19 22  1  0
 20 23  2  0
 21 23  1  0
M  CHG  2   4  -1   8  -1
M  END
>  <%Rank>  (388) 
29.541985

>  <N_hits>  (388) 
2

>  <submitter_name>  (388) 
nan

>  <original SMILES>  (388) 
nan

>  <∆G_unbound>  (388) 
-0.133158

>  <∆G_bound>  (388) 
-8.595857

>  <regarded>  (388) 
5CMS_0_Q_β,mArh-EU0123_0_A_α

>  <ref_pdb>  (388) 
nan

>  <smiles>  (388) 
[O-][PH](O)(O)O[PH]([O-])(O)OCCCCCCc1ccncc1CO

>  <submitter_email>  (388) 
nan

>  <disregarded>  (388) 


>  <LE>  (388) 
-0.367943

>  <submitter_institution>  (388) 
nan

>  <ref_mols>  (388) 
5CMS_0_Q,mArh-EU0123_0_A

>  <N_constrained_atoms>  (388) 
18.0

>  <ref_url>  (388) 
nan

>  <method>  (388) 
nan

>  <comRMSD>  (388) 
0.519922

>  <N_unconstrained_atoms>  (388) 
5.0

>  <∆∆G>  (388) 
-8.462699

>  <runtime>  (388) 
38.004055

>  <generation_date>  (388) 
nan

$$$$
mArh-5cms_R_17_R_β-mArh-5cms_I_8_I_γ
     RDKit          3D

 16 16  0  0  0  0  0  0  0  0999 V2000
   -1.4270   20.5500   -8.5050 O   0  0  0  0  0  0  0  0  0  0  0  0
   -0.2820   19.7610   -7.7440 P   0  0  0  0  0  0  0  0  0  0  0  0
   -0.9610   19.3350   -6.3810 O   0  0  0  0  0  0  0  0  0  0  0  0
    0.9700   20.5270   -7.6040 O   0  0  0  0  0  0  0  0  0  0  0  0
   -0.1520   18.4930   -8.6940 O   0  0  0  0  0  0  0  0  0  0  0  0
   -1.5340   17.9100   -6.0410 P   0  0  2  0  0  0  0  0  0  0  0  0
   -0.3160   16.9010   -5.7520 O   0  0  0  0  0  0  0  0  0  0  0  0
   -2.6540   17.4370   -6.8840 O   0  0  0  0  0  0  0  0  0  0  0  0
   -1.9980   18.1530   -4.5470 O   0  0  0  0  0  0  0  0  0  0  0  0
   -0.6020   15.8770   -4.8120 C   0  0  2  0  0  0  0  0  0  0  0  0
    0.1290   15.9110   -3.5760 O   0  0  0  0  0  0  0  0  0  0  0  0
   -0.4170   14.4260   -5.2440 C   0  0  1  0  0  0  0  0  0  0  0  0
    0.9430   13.9550   -5.3230 O   0  0  0  0  0  0  0  0  0  0  0  0
   -0.2340   14.6620   -2.9380 C   0  0  0  0  0  0  0  0  0  0  0  0
   -1.0100   13.8560   -3.9920 C   0  0  2  0  0  0  0  0  0  0  0  0
   -0.8130   12.4600   -3.9490 O   0  0  0  0  0  0  0  0  0  0  0  0
  1  2  1  0
  2  3  1  0
  2  4  2  0
  2  5  1  0
  3  6  1  0
  6  7  1  0
  6  8  2  0
  6  9  1  1
 10  7  1  6
 10 11  1  0
 10 12  1  0
 12 13  1  1
 11 14  1  0
 12 15  1  0
 14 15  1  0
 15 16  1  1
M  END
>  <%Rank>  (389) 
29.618321

>  <N_hits>  (389) 
2

>  <submitter_name>  (389) 
nan

>  <original SMILES>  (389) 
nan

>  <∆G_unbound>  (389) 
1.157846

>  <∆G_bound>  (389) 
-7.717391

>  <regarded>  (389) 
mArh-5cms_R_17_R_β,mArh-5cms_I_8_I_γ

>  <ref_pdb>  (389) 
nan

>  <smiles>  (389) 
O=P(O)(O)OP(=O)(O)OC1OCC(O)C1O

>  <submitter_email>  (389) 
nan

>  <disregarded>  (389) 


>  <LE>  (389) 
-0.554702

>  <submitter_institution>  (389) 
nan

>  <ref_mols>  (389) 
mArh-5cms_R_17_R,mArh-5cms_I_8_I

>  <N_constrained_atoms>  (389) 
16.0

>  <ref_url>  (389) 
nan

>  <method>  (389) 
nan

>  <comRMSD>  (389) 
0.708653

>  <N_unconstrained_atoms>  (389) 
0.0

>  <∆∆G>  (389) 
-8.875237

>  <runtime>  (389) 
31.538469

>  <generation_date>  (389) 
nan

$$$$
mArh-EU0087_0_A_α-mArh-x0631_0_A_β
     RDKit          3D

 24 25  0  0  0  0  0  0  0  0999 V2000
   -3.7540   14.2760    1.2390 N   0  0  0  0  0  0  0  0  0  0  0  0
   -4.9350   14.5260    0.5540 C   0  0  0  0  0  0  0  0  0  0  0  0
   -6.1550   14.3420    1.4420 C   0  0  0  0  0  0  0  0  0  0  0  0
   -2.4440   14.4280    0.9210 C   0  0  0  0  0  0  0  0  0  0  0  0
   -5.1040   14.8760   -0.6790 N   0  0  0  0  0  0  0  0  0  0  0  0
   -1.4590   14.5630    1.7680 N   0  0  0  0  0  0  0  0  0  0  0  0
   -1.9280   14.4570   -0.7340 S   0  0  0  0  0  0  0  0  0  0  0  0
   -4.0900   15.1100   -1.6950 C   0  0  0  0  0  0  0  0  0  0  0  0
   -0.3070   14.6770   -0.2510 C   0  0  0  0  0  0  0  0  0  0  0  0
   -0.2620   14.7080    1.1170 C   0  0  0  0  0  0  0  0  0  0  0  0
   -3.9450   13.8820   -2.6040 C   0  0  0  0  0  0  0  0  0  0  0  0
   -3.4930   12.5820   -1.9110 C   0  0  0  0  0  0  0  0  0  0  0  0
   -3.9730   11.3190   -2.6370 C   0  0  0  0  0  0  0  0  0  0  0  0
   -2.8810   10.2660   -2.8850 C   0  0  0  0  0  0  0  0  0  0  0  0
   -2.2720   10.3030   -4.2990 C   0  0  0  0  0  0  0  0  0  0  0  0
   -2.8470    9.2030   -5.2110 C   0  0  0  0  0  0  0  0  0  0  0  0
   -2.5220    9.3710   -6.7100 C   0  0  0  0  0  0  0  0  0  0  0  0
   -1.5960    8.3160   -7.3180 C   0  0  0  0  0  0  0  0  0  0  0  0
   -0.1720    8.3990   -6.7720 C   0  0  0  0  0  0  0  0  0  0  0  0
    0.6620    9.3420   -7.5460 N   0  0  0  0  0  0  0  0  0  0  0  0
    0.6290    9.1660   -8.9760 N   0  0  0  0  0  0  0  0  0  0  0  0
    0.3050   10.6920   -7.3090 N   0  0  0  0  0  0  0  0  0  0  0  0
    0.9120   10.5100   -9.4870 C   0  0  0  0  0  0  0  0  0  0  0  0
    1.0910   11.3440   -8.3070 N   0  0  0  0  0  0  0  0  0  0  0  0
  1  2  1  0
  2  3  1  0
  1  4  1  0
  2  5  2  3
  4  6  2  0
  4  7  1  0
  5  8  1  0
  7  9  1  0
  6 10  1  0
  9 10  2  0
  8 11  1  0
 11 12  1  0
 12 13  1  0
 13 14  1  0
 14 15  1  0
 15 16  1  0
 16 17  1  0
 17 18  1  0
 18 19  1  0
 19 20  1  0
 20 21  1  0
 20 22  1  0
 21 23  1  0
 22 24  1  0
 23 24  1  0
M  END
>  <%Rank>  (390) 
29.694656

>  <N_hits>  (390) 
2

>  <submitter_name>  (390) 
nan

>  <original SMILES>  (390) 
nan

>  <∆G_unbound>  (390) 
0.332818

>  <∆G_bound>  (390) 
-8.06716

>  <regarded>  (390) 
mArh-EU0087_0_A_α,mArh-x0631_0_A_β

>  <ref_pdb>  (390) 
nan

>  <smiles>  (390) 
CC(=NCCCCCCCCCCN1NCNN1)Nc1nccs1

>  <submitter_email>  (390) 
nan

>  <disregarded>  (390) 


>  <LE>  (390) 
-0.349999

>  <submitter_institution>  (390) 
nan

>  <ref_mols>  (390) 
mArh-EU0087_0_A,mArh-x0631_0_A

>  <N_constrained_atoms>  (390) 
17.0

>  <ref_url>  (390) 
nan

>  <method>  (390) 
nan

>  <comRMSD>  (390) 
0.423

>  <N_unconstrained_atoms>  (390) 
7.0

>  <∆∆G>  (390) 
-8.399978

>  <runtime>  (390) 
41.762571

>  <generation_date>  (390) 
nan

$$$$
5FUD_0_A_α-6MEA_0_B_β
     RDKit          3D

 17 17  0  0  0  0  0  0  0  0999 V2000
   -1.1520   19.2600   -6.7250 O   0  0  0  0  0  0  0  0  0  0  0  0
   -0.9700   19.7970   -7.9110 S   0  0  1  0  0  0  0  0  0  0  0  0
    0.5000   20.9270   -7.7720 O   0  0  0  0  0  0  0  0  0  0  0  0
   -1.5120   17.9020   -5.9650 P   0  0  0  0  0  0  0  0  0  0  0  0
   -0.2380   18.8440   -9.0290 O   0  0  0  0  0  0  0  0  0  0  0  0
   -1.8970   21.1420   -8.5570 C   0  0  0  0  0  0  0  0  0  0  0  0
   -0.4200   17.0080   -5.1090 O   0  0  0  0  0  0  0  0  0  0  0  0
   -2.9830   17.1630   -6.2080 O   0  0  0  0  0  0  0  0  0  0  0  0
   -2.0240   18.7070   -4.7660 O   0  0  0  0  0  0  0  0  0  0  0  0
   -2.7290   21.6750   -7.4340 C   0  0  0  0  0  0  0  0  0  0  0  0
    1.2930   20.1620   -7.1220 O   0  0  0  0  0  0  0  0  0  0  0  0
   -3.9800   22.2020   -7.8590 N   0  0  0  0  0  0  0  0  0  0  0  0
   -4.1460   22.5940   -9.2460 C   0  0  0  0  0  0  0  0  0  0  0  0
   -4.1820   23.4720   -7.1870 C   0  0  0  0  0  0  0  0  0  0  0  0
   -5.6730   22.7680   -9.4020 C   0  0  0  0  0  0  0  0  0  0  0  0
   -5.6630   23.6000   -7.2470 C   0  0  0  0  0  0  0  0  0  0  0  0
   -6.1700   23.6930   -8.5120 O   0  0  0  0  0  0  0  0  0  0  0  0
  2  1  1  0
  2  3  1  0
  1  4  1  0
  2  5  1  6
  2  6  1  0
  4  7  1  0
  4  8  1  0
  4  9  1  0
  6 10  1  0
  3 11  1  0
 10 12  1  0
 12 13  1  0
 12 14  1  0
 13 15  1  0
 14 16  1  0
 15 17  1  0
 16 17  1  0
M  CHG  2   8  -1  11  -1
M  END
>  <%Rank>  (391) 
29.770992

>  <N_hits>  (391) 
2

>  <submitter_name>  (391) 
nan

>  <original SMILES>  (391) 
nan

>  <∆G_unbound>  (391) 
1.717042

>  <∆G_bound>  (391) 
-6.669601

>  <regarded>  (391) 
5FUD_0_A_α,6MEA_0_B_β

>  <ref_pdb>  (391) 
nan

>  <smiles>  (391) 
[O-]OS(O)(CCN1CCOCC1)O[PH]([O-])(O)O

>  <submitter_email>  (391) 
nan

>  <disregarded>  (391) 


>  <LE>  (391) 
-0.493332

>  <submitter_institution>  (391) 
nan

>  <ref_mols>  (391) 
5FUD_0_A,6MEA_0_B

>  <N_constrained_atoms>  (391) 
17.0

>  <ref_url>  (391) 
nan

>  <method>  (391) 
nan

>  <comRMSD>  (391) 
0.700896

>  <N_unconstrained_atoms>  (391) 
0.0

>  <∆∆G>  (391) 
-8.386643

>  <runtime>  (391) 
35.317986

>  <generation_date>  (391) 
nan

$$$$
5DUS_0_A_γ-mArh-5cb5_J_2_J_β
     RDKit          3D

 16 16  0  0  0  0  0  0  0  0999 V2000
   -2.1820   13.1220   -4.0510 O   0  0  0  0  0  0  0  0  0  0  0  0
   -0.8250   13.4710   -3.8810 C   0  0  2  0  0  0  0  0  0  0  0  0
   -0.5600   14.3340   -2.6390 C   0  0  0  0  0  0  0  0  0  0  0  0
   -0.3180   14.3440   -5.0150 C   0  0  2  0  0  0  0  0  0  0  0  0
    1.0860   14.0710   -5.1310 O   0  0  0  0  0  0  0  0  0  0  0  0
   -0.0750   15.6090   -3.1030 O   0  0  0  0  0  0  0  0  0  0  0  0
   -0.6360   15.7120   -4.4220 C   0  0  1  0  0  0  0  0  0  0  0  0
   -0.0850   16.9420   -5.1290 C   0  0  0  0  0  0  0  0  0  0  0  0
   -1.2990   18.0870   -5.8530 P   0  0  1  0  0  0  0  0  0  0  0  0
   -0.3920   19.1970   -6.4680 O   0  0  0  0  0  0  0  0  0  0  0  0
   -2.3290   17.4830   -6.7690 O   0  0  0  0  0  0  0  0  0  0  0  0
   -1.9770   18.9730   -4.7090 O   0  0  0  0  0  0  0  0  0  0  0  0
   -0.1460   19.8190   -7.8530 P   0  0  0  0  0  0  0  0  0  0  0  0
   -1.5760   20.3080   -8.3360 O   0  0  0  0  0  0  0  0  0  0  0  0
    0.8900   20.8680   -7.8960 O   0  0  0  0  0  0  0  0  0  0  0  0
    0.0930   18.5690   -8.8260 O   0  0  0  0  0  0  0  0  0  0  0  0
  2  1  1  6
  2  3  1  0
  2  4  1  0
  4  5  1  1
  3  6  1  0
  4  7  1  0
  6  7  1  0
  7  8  1  6
  8  9  1  0
  9 10  1  0
  9 11  2  0
  9 12  1  1
 10 13  1  0
 13 14  1  0
 13 15  2  0
 13 16  1  0
M  END
>  <%Rank>  (392) 
29.847328

>  <N_hits>  (392) 
2

>  <submitter_name>  (392) 
nan

>  <original SMILES>  (392) 
nan

>  <∆G_unbound>  (392) 
1.057928

>  <∆G_bound>  (392) 
-9.253875

>  <regarded>  (392) 
5DUS_0_A_γ,mArh-5cb5_J_2_J_β

>  <ref_pdb>  (392) 
nan

>  <smiles>  (392) 
O=P(O)(O)OP(=O)(O)CC1OCC(O)C1O

>  <submitter_email>  (392) 
nan

>  <disregarded>  (392) 


>  <LE>  (392) 
-0.644488

>  <submitter_institution>  (392) 
nan

>  <ref_mols>  (392) 
5DUS_0_A,mArh-5cb5_J_2_J

>  <N_constrained_atoms>  (392) 
16.0

>  <ref_url>  (392) 
nan

>  <method>  (392) 
nan

>  <comRMSD>  (392) 
0.754661

>  <N_unconstrained_atoms>  (392) 
0.0

>  <∆∆G>  (392) 
-10.311803

>  <runtime>  (392) 
34.100007

>  <generation_date>  (392) 
nan

$$$$
5CB5_0_G_β-5CB5_0_D_δ
     RDKit          3D

 21 22  0  0  0  0  0  0  0  0999 V2000
   -1.3430   20.6690   -9.0110 O   0  0  0  0  0  0  0  0  0  0  0  0
   -0.8190   19.9100   -7.8070 P   0  0  0  0  0  0  0  0  0  0  0  0
   -0.5590   19.0480   -6.6030 O   0  0  0  0  0  0  0  0  0  0  0  0
    0.4340   20.9050   -7.5910 O   0  0  0  0  0  0  0  0  0  0  0  0
   -0.4770   18.5600   -8.7150 O   0  0  0  0  0  0  0  0  0  0  0  0
   -1.5090   18.1640   -5.8020 P   0  0  0  0  0  0  0  0  0  0  0  0
   -2.3200   17.2040   -4.9460 O   0  0  0  0  0  0  0  0  0  0  0  0
   -2.4110   17.7160   -7.0830 O   0  0  0  0  0  0  0  0  0  0  0  0
   -2.1520   19.4040   -4.9970 O   0  0  0  0  0  0  0  0  0  0  0  0
   -1.6890   16.0290   -4.5330 C   0  0  0  0  0  0  0  0  0  0  0  0
   -1.4840   16.0920   -3.0660 C   0  0  0  0  0  0  0  0  0  0  0  0
   -1.7560   14.8220   -2.4090 N   0  0  0  0  0  0  0  0  0  0  0  0
   -1.4950   15.0950   -1.0340 C   0  0  1  0  0  0  0  0  0  0  0  0
   -3.1900   14.6370   -2.5290 C   0  0  0  0  0  0  0  0  0  0  0  0
   -2.6650   14.3580   -0.3780 C   0  0  2  0  0  0  0  0  0  0  0  0
   -3.7290   14.8490   -1.1750 N   0  0  0  0  0  0  0  0  0  0  0  0
   -0.2860   14.4990   -0.5220 N   0  0  0  0  0  0  0  0  0  0  0  0
   -0.2810   14.8090    0.8990 C   0  0  0  0  0  0  0  0  0  0  0  0
   -2.6860   14.7730    1.0780 C   0  0  2  0  0  0  0  0  0  0  0  0
   -3.8370   15.6530    1.2720 N   0  0  0  0  0  0  0  0  0  0  0  0
   -1.4620   15.5090    1.2860 N   0  0  0  0  0  0  0  0  0  0  0  0
  1  2  1  0
  2  3  1  0
  2  4  1  0
  2  5  1  0
  3  6  1  0
  6  7  1  0
  6  8  1  0
  6  9  1  0
  7 10  1  0
 10 11  1  0
 11 12  1  0
 12 13  1  0
 12 14  1  0
 13 15  1  0
 14 16  1  0
 15 16  1  6
 13 17  1  1
 17 18  1  0
 15 19  1  0
 19 20  1  6
 18 21  1  0
 19 21  1  0
M  CHG  2   4  -1   8  -1
M  END
>  <%Rank>  (393) 
29.923664

>  <N_hits>  (393) 
2

>  <submitter_name>  (393) 
nan

>  <original SMILES>  (393) 
nan

>  <∆G_unbound>  (393) 
0.88229

>  <∆G_bound>  (393) 
-6.845283

>  <regarded>  (393) 
5CB5_0_G_β,5CB5_0_D_δ

>  <ref_pdb>  (393) 
nan

>  <smiles>  (393) 
NC1NCNC2C1NCN2CCO[PH]([O-])(O)O[PH]([O-])(O)O

>  <submitter_email>  (393) 
nan

>  <disregarded>  (393) 


>  <LE>  (393) 
-0.36798

>  <submitter_institution>  (393) 
nan

>  <ref_mols>  (393) 
5CB5_0_G,5CB5_0_D

>  <N_constrained_atoms>  (393) 
19.0

>  <ref_url>  (393) 
nan

>  <method>  (393) 
nan

>  <comRMSD>  (393) 
0.628618

>  <N_unconstrained_atoms>  (393) 
2.0

>  <∆∆G>  (393) 
-7.727573

>  <runtime>  (393) 
30.47847

>  <generation_date>  (393) 
nan

$$$$
5CMS_0_N_γ-mArh-5cms_R_17_R_β
     RDKit          3D

 16 16  0  0  0  0  0  0  0  0999 V2000
    0.9330   12.4790   -4.3150 O   0  0  0  0  0  0  0  0  0  0  0  0
    0.0620   13.5790   -4.1030 C   0  0  1  0  0  0  0  0  0  0  0  0
    0.6280   14.5600   -3.0730 C   0  0  0  0  0  0  0  0  0  0  0  0
   -0.0970   14.4200   -5.3550 C   0  0  2  0  0  0  0  0  0  0  0  0
    1.1080   14.2180   -6.0860 O   0  0  0  0  0  0  0  0  0  0  0  0
    0.6640   15.8680   -3.6630 O   0  0  0  0  0  0  0  0  0  0  0  0
   -0.2650   15.8250   -4.7470 C   0  0  1  0  0  0  0  0  0  0  0  0
   -0.0260   17.0730   -5.5870 C   0  0  0  0  0  0  0  0  0  0  0  0
   -1.5340   17.9820   -5.9720 P   0  0  1  0  0  0  0  0  0  0  0  0
   -1.1590   19.3590   -6.6080 O   0  0  0  0  0  0  0  0  0  0  0  0
   -2.5790   17.2340   -6.7310 O   0  0  0  0  0  0  0  0  0  0  0  0
   -2.0180   18.4420   -4.5410 O   0  0  0  0  0  0  0  0  0  0  0  0
   -0.2820   19.7980   -7.8080 P   0  0  0  0  0  0  0  0  0  0  0  0
   -1.3640   20.5970   -8.6370 O   0  0  0  0  0  0  0  0  0  0  0  0
    0.9730   20.5300   -7.5490 O   0  0  0  0  0  0  0  0  0  0  0  0
   -0.1240   18.5390   -8.7710 O   0  0  0  0  0  0  0  0  0  0  0  0
  2  1  1  6
  2  3  1  0
  2  4  1  0
  4  5  1  6
  3  6  1  0
  4  7  1  0
  6  7  1  0
  7  8  1  6
  8  9  1  0
  9 10  1  0
  9 11  2  0
  9 12  1  1
 10 13  1  0
 13 14  1  0
 13 15  2  0
 13 16  1  0
M  END
>  <%Rank>  (394) 
30.0

>  <N_hits>  (394) 
2

>  <submitter_name>  (394) 
nan

>  <original SMILES>  (394) 
nan

>  <∆G_unbound>  (394) 
1.057928

>  <∆G_bound>  (394) 
-8.804835

>  <regarded>  (394) 
5CMS_0_N_γ,mArh-5cms_R_17_R_β

>  <ref_pdb>  (394) 
nan

>  <smiles>  (394) 
O=P(O)(O)OP(=O)(O)CC1OCC(O)C1O

>  <submitter_email>  (394) 
nan

>  <disregarded>  (394) 


>  <LE>  (394) 
-0.616423

>  <submitter_institution>  (394) 
nan

>  <ref_mols>  (394) 
5CMS_0_N,mArh-5cms_R_17_R

>  <N_constrained_atoms>  (394) 
16.0

>  <ref_url>  (394) 
nan

>  <method>  (394) 
nan

>  <comRMSD>  (394) 
0.741567

>  <N_unconstrained_atoms>  (394) 
0.0

>  <∆∆G>  (394) 
-9.862763

>  <runtime>  (394) 
30.678949

>  <generation_date>  (394) 
nan

$$$$
mArh-5cms_K_10_K_γ-mArh-4iqy_B_0_B_β
     RDKit          3D

 16 16  0  0  0  0  0  0  0  0999 V2000
   -1.5430   12.6550   -4.2590 O   0  0  0  0  0  0  0  0  0  0  0  0
   -0.3320   13.3380   -3.9890 C   0  0  2  0  0  0  0  0  0  0  0  0
   -0.4400   14.3370   -2.8270 C   0  0  0  0  0  0  0  0  0  0  0  0
    0.1420   14.2020   -5.1530 C   0  0  2  0  0  0  0  0  0  0  0  0
    1.5740   14.1440   -5.0860 O   0  0  0  0  0  0  0  0  0  0  0  0
   -0.0820   15.6320   -3.3440 O   0  0  0  0  0  0  0  0  0  0  0  0
   -0.4540   15.5460   -4.7250 C   0  0  1  0  0  0  0  0  0  0  0  0
   -0.0560   16.8450   -5.4250 C   0  0  0  0  0  0  0  0  0  0  0  0
   -1.4830   17.8970   -5.8160 P   0  0  2  0  0  0  0  0  0  0  0  0
   -1.0500   19.2500   -6.4920 O   0  0  0  0  0  0  0  0  0  0  0  0
   -2.2180   18.1730   -4.5800 O   0  0  0  0  0  0  0  0  0  0  0  0
   -2.4940   17.2000   -6.8460 O   0  0  0  0  0  0  0  0  0  0  0  0
   -0.2850   19.7080   -7.7740 P   0  0  0  0  0  0  0  0  0  0  0  0
   -1.4540   20.4030   -8.5910 O   0  0  0  0  0  0  0  0  0  0  0  0
    0.9020   20.5620   -7.6070 O   0  0  0  0  0  0  0  0  0  0  0  0
   -0.0540   18.4310   -8.7040 O   0  0  0  0  0  0  0  0  0  0  0  0
  2  1  1  6
  2  3  1  0
  2  4  1  0
  4  5  1  1
  3  6  1  0
  4  7  1  0
  6  7  1  0
  7  8  1  6
  8  9  1  0
  9 10  1  0
  9 11  2  0
  9 12  1  6
 10 13  1  0
 13 14  1  0
 13 15  2  0
 13 16  1  0
M  END
>  <%Rank>  (395) 
30.076336

>  <N_hits>  (395) 
2

>  <submitter_name>  (395) 
nan

>  <original SMILES>  (395) 
nan

>  <∆G_unbound>  (395) 
1.057928

>  <∆G_bound>  (395) 
-8.439163

>  <regarded>  (395) 
mArh-5cms_K_10_K_γ,mArh-4iqy_B_0_B_β

>  <ref_pdb>  (395) 
nan

>  <smiles>  (395) 
O=P(O)(O)OP(=O)(O)CC1OCC(O)C1O

>  <submitter_email>  (395) 
nan

>  <disregarded>  (395) 


>  <LE>  (395) 
-0.593568

>  <submitter_institution>  (395) 
nan

>  <ref_mols>  (395) 
mArh-5cms_K_10_K,mArh-4iqy_B_0_B

>  <N_constrained_atoms>  (395) 
16.0

>  <ref_url>  (395) 
nan

>  <method>  (395) 
nan

>  <comRMSD>  (395) 
0.730217

>  <N_unconstrained_atoms>  (395) 
0.0

>  <∆∆G>  (395) 
-9.497091

>  <runtime>  (395) 
34.352574

>  <generation_date>  (395) 
nan

$$$$
mArh-5cms_M_12_M_β-5CB5_0_R_δ
     RDKit          3D

 21 22  0  0  0  0  0  0  0  0999 V2000
   -1.6900   20.3580   -8.1510 O   0  0  0  0  0  0  0  0  0  0  0  0
   -0.2460   19.7760   -7.8020 P   0  0  0  0  0  0  0  0  0  0  0  0
   -0.4170   18.9110   -6.4870 O   0  0  0  0  0  0  0  0  0  0  0  0
    0.7960   20.8350   -7.7840 O   0  0  0  0  0  0  0  0  0  0  0  0
   -0.0290   18.6630   -8.9150 O   0  0  0  0  0  0  0  0  0  0  0  0
   -1.8230   18.3800   -6.0070 P   0  0  2  0  0  0  0  0  0  0  0  0
   -1.5680   17.6490   -4.6260 O   0  0  0  0  0  0  0  0  0  0  0  0
   -2.6380   17.6200   -6.9820 O   0  0  0  0  0  0  0  0  0  0  0  0
   -2.5200   19.6430   -5.3510 O   0  0  0  0  0  0  0  0  0  0  0  0
   -1.8840   16.2800   -4.4880 C   0  0  0  0  0  0  0  0  0  0  0  0
   -0.9200   15.6400   -3.4740 C   0  0  0  0  0  0  0  0  0  0  0  0
   -1.5800   14.7950   -2.4550 N   0  0  0  0  0  0  0  0  0  0  0  0
   -1.4130   15.2390   -1.0710 C   0  0  1  0  0  0  0  0  0  0  0  0
   -3.0520   14.6750   -2.6050 C   0  0  0  0  0  0  0  0  0  0  0  0
   -2.8450   15.4580   -0.5670 C   0  0  1  0  0  0  0  0  0  0  0  0
   -3.5810   14.4140   -1.2650 N   0  0  0  0  0  0  0  0  0  0  0  0
   -0.6190   14.3600   -0.2520 N   0  0  0  0  0  0  0  0  0  0  0  0
   -0.5680   14.9680    1.0540 C   0  0  0  0  0  0  0  0  0  0  0  0
   -2.9200   15.5870    0.9560 C   0  0  1  0  0  0  0  0  0  0  0  0
   -4.2220   15.2730    1.5160 N   0  0  0  0  0  0  0  0  0  0  0  0
   -1.8840   14.8500    1.6540 N   0  0  0  0  0  0  0  0  0  0  0  0
  1  2  1  0
  2  3  1  0
  2  4  2  0
  2  5  1  0
  3  6  1  0
  6  7  1  0
  6  8  2  0
  6  9  1  1
  7 10  1  0
 10 11  1  0
 11 12  1  0
 12 13  1  0
 12 14  1  0
 13 15  1  0
 14 16  1  0
 15 16  1  1
 13 17  1  1
 17 18  1  0
 15 19  1  0
 19 20  1  1
 18 21  1  0
 19 21  1  0
M  END
>  <%Rank>  (396) 
30.152672

>  <N_hits>  (396) 
2

>  <submitter_name>  (396) 
nan

>  <original SMILES>  (396) 
nan

>  <∆G_unbound>  (396) 
1.152563

>  <∆G_bound>  (396) 
-10.217871

>  <regarded>  (396) 
mArh-5cms_M_12_M_β,5CB5_0_R_δ

>  <ref_pdb>  (396) 
nan

>  <smiles>  (396) 
NC1NCNC2C1NCN2CCOP(=O)(O)OP(=O)(O)O

>  <submitter_email>  (396) 
nan

>  <disregarded>  (396) 


>  <LE>  (396) 
-0.541449

>  <submitter_institution>  (396) 
nan

>  <ref_mols>  (396) 
mArh-5cms_M_12_M,5CB5_0_R

>  <N_constrained_atoms>  (396) 
19.0

>  <ref_url>  (396) 
nan

>  <method>  (396) 
nan

>  <comRMSD>  (396) 
0.716162

>  <N_unconstrained_atoms>  (396) 
2.0

>  <∆∆G>  (396) 
-11.370435

>  <runtime>  (396) 
33.852032

>  <generation_date>  (396) 
nan

$$$$
5CB5_0_F_α-mArh-5cms_M_12_M_γ
     RDKit          3D

 25 26  0  0  0  0  0  0  0  0999 V2000
   -1.9190   21.4150   -8.5080 C   0  0  0  0  0  0  0  0  0  0  0  0
   -3.2450   21.6580   -9.2210 C   0  0  2  0  0  0  0  0  0  0  0  0
   -3.6380   23.0980   -9.2200 C   0  0  1  0  0  0  0  0  0  0  0  0
   -4.3420   20.9950   -8.5420 O   0  0  0  0  0  0  0  0  0  0  0  0
   -4.6750   23.4390  -10.1370 O   0  0  0  0  0  0  0  0  0  0  0  0
   -4.0120   23.1500   -7.8080 C   0  0  2  0  0  0  0  0  0  0  0  0
   -5.0060   21.9640   -7.7230 C   0  0  2  0  0  0  0  0  0  0  0  0
   -4.4890   24.4060   -7.5340 O   0  0  0  0  0  0  0  0  0  0  0  0
   -5.1190   21.3880   -6.4000 O   0  0  0  0  0  0  0  0  0  0  0  0
   -4.9270   24.4190   -6.2670 C   0  0  1  0  0  0  0  0  0  0  0  0
   -3.8420   21.1540   -5.8080 C   0  0  0  0  0  0  0  0  0  0  0  0
   -4.5000   25.7170   -5.6200 C   0  0  0  0  0  0  0  0  0  0  0  0
   -6.2670   24.3050   -6.5500 O   0  0  0  0  0  0  0  0  0  0  0  0
   -3.0490   20.0710   -6.5660 C   0  0  0  0  0  0  0  0  0  0  0  0
   -1.8160   19.5470   -5.8150 C   0  0  0  0  0  0  0  0  0  0  0  0
   -1.2320   18.1790   -6.2160 C   0  0  0  0  0  0  0  0  0  0  0  0
    0.2790   18.0120   -5.9380 C   0  0  0  0  0  0  0  0  0  0  0  0
    0.7900   16.7360   -5.2420 C   0  0  0  0  0  0  0  0  0  0  0  0
   -0.2420   15.7050   -4.7860 C   0  0  2  0  0  0  0  0  0  0  0  0
   -0.1980   15.6190   -3.3430 O   0  0  0  0  0  0  0  0  0  0  0  0
   -0.0850   14.2350   -5.1990 C   0  0  1  0  0  0  0  0  0  0  0  0
    1.1940   13.6780   -4.8550 O   0  0  0  0  0  0  0  0  0  0  0  0
   -0.8200   14.3690   -2.9790 C   0  0  0  0  0  0  0  0  0  0  0  0
   -1.1560   13.6660   -4.2950 C   0  0  2  0  0  0  0  0  0  0  0  0
   -1.0530   12.2490   -4.1810 O   0  0  0  0  0  0  0  0  0  0  0  0
  2  1  1  1
  2  3  1  0
  2  4  1  0
  3  5  1  6
  3  6  1  0
  4  7  1  0
  6  7  1  0
  6  8  1  6
  7  9  1  1
  8 10  1  0
  9 11  1  0
 10 12  1  6
 10 13  1  0
 11 14  1  0
 14 15  1  0
 15 16  1  0
 16 17  1  0
 17 18  1  0
 19 18  1  6
 19 20  1  0
 19 21  1  0
 21 22  1  1
 20 23  1  0
 21 24  1  0
 23 24  1  0
 24 25  1  1
M  END
>  <%Rank>  (397) 
30.229008

>  <N_hits>  (397) 
2

>  <submitter_name>  (397) 
nan

>  <original SMILES>  (397) 
nan

>  <∆G_unbound>  (397) 
0.969165

>  <∆G_bound>  (397) 
-8.721769

>  <regarded>  (397) 
5CB5_0_F_α,mArh-5cms_M_12_M_γ

>  <ref_pdb>  (397) 
nan

>  <smiles>  (397) 
CC1OC(OCCCCCCC2OCC(O)C2O)C(O[C@@H](C)O)C1O

>  <submitter_email>  (397) 
nan

>  <disregarded>  (397) 


>  <LE>  (397) 
-0.387637

>  <submitter_institution>  (397) 
nan

>  <ref_mols>  (397) 
5CB5_0_F,mArh-5cms_M_12_M

>  <N_constrained_atoms>  (397) 
20.0

>  <ref_url>  (397) 
nan

>  <method>  (397) 
nan

>  <comRMSD>  (397) 
0.586354

>  <N_unconstrained_atoms>  (397) 
5.0

>  <∆∆G>  (397) 
-9.690934

>  <runtime>  (397) 
34.349595

>  <generation_date>  (397) 
nan

$$$$
5CMS_0_J_δ-mArh-4iqy_A_0_A_β
     RDKit          3D

 21 22  0  0  0  0  0  0  0  0999 V2000
   -4.1590   14.5350    1.2360 N   0  0  0  0  0  0  0  0  0  0  0  0
   -2.9690   15.3290    1.0870 C   0  0  2  0  0  0  0  0  0  0  0  0
   -2.6860   15.6570   -0.3770 C   0  0  1  0  0  0  0  0  0  0  0  0
   -1.9500   14.5770    1.7990 N   0  0  0  0  0  0  0  0  0  0  0  0
   -1.3410   15.1450   -0.9170 C   0  0  2  0  0  0  0  0  0  0  0  0
   -3.6540   15.1550   -1.3620 N   0  0  0  0  0  0  0  0  0  0  0  0
   -0.6420   14.4950    1.1690 C   0  0  0  0  0  0  0  0  0  0  0  0
   -1.6750   14.6190   -2.2270 N   0  0  0  0  0  0  0  0  0  0  0  0
   -2.8510   15.4190   -2.5260 C   0  0  1  0  0  0  0  0  0  0  0  0
   -0.7920   14.0580   -0.1790 N   0  0  0  0  0  0  0  0  0  0  0  0
   -3.5110   15.1010   -3.8560 C   0  0  0  0  0  0  0  0  0  0  0  0
   -2.9930   15.9830   -5.0200 C   0  0  0  0  0  0  0  0  0  0  0  0
   -2.3550   17.2620   -4.6450 N   0  0  0  0  0  0  0  0  0  0  0  0
   -1.5080   17.8200   -5.9420 P   0  0  0  0  0  0  0  0  0  0  0  0
   -1.2180   19.3260   -6.3170 O   0  0  0  0  0  0  0  0  0  0  0  0
   -0.1750   17.0130   -6.1470 O   0  0  0  0  0  0  0  0  0  0  0  0
   -2.5350   17.3580   -7.0400 O   0  0  0  0  0  0  0  0  0  0  0  0
   -0.4460   19.7730   -7.6790 P   0  0  0  0  0  0  0  0  0  0  0  0
   -1.5890   20.5470   -8.4800 O   0  0  0  0  0  0  0  0  0  0  0  0
    0.8160   20.5400   -7.5150 O   0  0  0  0  0  0  0  0  0  0  0  0
   -0.2820   18.4450   -8.5640 O   0  0  0  0  0  0  0  0  0  0  0  0
  2  1  1  6
  2  3  1  0
  2  4  1  0
  3  5  1  0
  3  6  1  6
  4  7  1  0
  5  8  1  6
  6  9  1  0
  8  9  1  0
  5 10  1  0
  7 10  1  0
  9 11  1  6
 11 12  1  0
 12 13  1  0
 13 14  2  3
 14 15  1  0
 14 16  1  0
 14 17  1  0
 15 18  1  0
 18 19  1  0
 18 20  2  0
 18 21  1  0
M  END
>  <%Rank>  (398) 
30.305344

>  <N_hits>  (398) 
2

>  <submitter_name>  (398) 
nan

>  <original SMILES>  (398) 
nan

>  <∆G_unbound>  (398) 
3.09213

>  <∆G_bound>  (398) 
-8.210195

>  <regarded>  (398) 
5CMS_0_J_δ,mArh-4iqy_A_0_A_β

>  <ref_pdb>  (398) 
nan

>  <smiles>  (398) 
NC1NCNC2NC(CCN=P(O)(O)OP(=O)(O)O)NC12

>  <submitter_email>  (398) 
nan

>  <disregarded>  (398) 


>  <LE>  (398) 
-0.538206

>  <submitter_institution>  (398) 
nan

>  <ref_mols>  (398) 
5CMS_0_J,mArh-4iqy_A_0_A

>  <N_constrained_atoms>  (398) 
19.0

>  <ref_url>  (398) 
nan

>  <method>  (398) 
nan

>  <comRMSD>  (398) 
0.71567

>  <N_unconstrained_atoms>  (398) 
2.0

>  <∆∆G>  (398) 
-11.302325

>  <runtime>  (398) 
35.07496

>  <generation_date>  (398) 
nan

$$$$
mArh-5l9k_B_0_B_α-mArh-5cms_H_7_H_β
     RDKit          3D

 17 17  0  0  0  0  0  0  0  0999 V2000
   -1.7970   21.5880   -7.8360 C   0  0  0  0  0  0  0  0  0  0  0  0
   -1.0440   19.9180   -7.6850 P   0  0  2  0  0  0  0  0  0  0  0  0
   -2.1420   18.8180   -7.3980 O   0  0  0  0  0  0  0  0  0  0  0  0
   -3.2010   21.8910   -8.4420 C   0  0  1  0  0  0  0  0  0  0  0  0
    0.1020   19.7550   -6.7640 O   0  0  0  0  0  0  0  0  0  0  0  0
   -0.4700   19.4400   -9.0890 O   0  0  0  0  0  0  0  0  0  0  0  0
   -4.1940   21.1100   -7.7780 O   0  0  0  0  0  0  0  0  0  0  0  0
   -3.7300   23.3490   -8.2820 C   0  0  1  0  0  0  0  0  0  0  0  0
   -4.6040   23.7660   -9.3430 O   0  0  0  0  0  0  0  0  0  0  0  0
   -2.0830   17.8290   -6.1660 P   0  0  0  0  0  0  0  0  0  0  0  0
   -5.1560   21.9360   -7.1160 C   0  0  1  0  0  0  0  0  0  0  0  0
   -4.4900   23.2860   -6.9540 C   0  0  2  0  0  0  0  0  0  0  0  0
   -6.3560   22.0110   -7.8630 O   0  0  0  0  0  0  0  0  0  0  0  0
   -5.5350   24.2660   -6.8160 O   0  0  0  0  0  0  0  0  0  0  0  0
   -0.5870   17.3020   -6.1140 O   0  0  0  0  0  0  0  0  0  0  0  0
   -3.1150   16.7550   -6.1720 O   0  0  0  0  0  0  0  0  0  0  0  0
   -2.0950   18.8070   -4.9060 O   0  0  0  0  0  0  0  0  0  0  0  0
  1  2  1  0
  2  3  1  0
  4  1  1  1
  2  5  2  0
  2  6  1  6
  4  7  1  0
  4  8  1  0
  8  9  1  6
  3 10  1  0
  7 11  1  0
  8 12  1  0
 11 12  1  0
 11 13  1  6
 12 14  1  6
 10 15  1  0
 10 16  2  0
 10 17  1  0
M  END
>  <%Rank>  (399) 
30.381679

>  <N_hits>  (399) 
2

>  <submitter_name>  (399) 
nan

>  <original SMILES>  (399) 
nan

>  <∆G_unbound>  (399) 
1.703844

>  <∆G_bound>  (399) 
-10.418002

>  <regarded>  (399) 
mArh-5l9k_B_0_B_α,mArh-5cms_H_7_H_β

>  <ref_pdb>  (399) 
nan

>  <smiles>  (399) 
O=P(O)(O)OP(=O)(O)CC1OC(O)C(O)C1O

>  <submitter_email>  (399) 
nan

>  <disregarded>  (399) 


>  <LE>  (399) 
-0.71305

>  <submitter_institution>  (399) 
nan

>  <ref_mols>  (399) 
mArh-5l9k_B_0_B,mArh-5cms_H_7_H

>  <N_constrained_atoms>  (399) 
17.0

>  <ref_url>  (399) 
nan

>  <method>  (399) 
nan

>  <comRMSD>  (399) 
0.814536

>  <N_unconstrained_atoms>  (399) 
0.0

>  <∆∆G>  (399) 
-12.121846

>  <runtime>  (399) 
36.702961

>  <generation_date>  (399) 
nan

$$$$
3Q6Z_0_A_γ-mArh-x1018_0_A_α
     RDKit          3D

 19 21  0  0  0  0  0  0  0  0999 V2000
   -1.1870   12.6330   -3.6500 O   0  0  0  0  0  0  0  0  0  0  0  0
   -1.2120   13.7400   -4.5450 C   0  0  1  0  0  0  0  0  0  0  0  0
   -1.7540   15.0910   -4.0130 C   0  0  1  0  0  0  0  0  0  0  0  0
    0.2500   14.1400   -4.8260 C   0  0  2  0  0  0  0  0  0  0  0  0
    1.1710   13.4530   -3.9860 O   0  0  0  0  0  0  0  0  0  0  0  0
   -3.0290   15.3160   -3.2210 C   0  0  0  0  0  0  0  0  0  0  0  0
   -0.6460   15.7410   -3.4310 O   0  0  0  0  0  0  0  0  0  0  0  0
    0.1250   15.6530   -4.6100 C   0  0  1  0  0  0  0  0  0  0  0  0
    1.3170   16.5050   -4.4990 C   0  0  0  0  0  0  0  0  0  0  0  0
   -3.4950   14.4200   -2.2040 N   0  0  0  0  0  0  0  0  0  0  0  0
   -3.0860   14.7890   -0.8630 N   0  0  0  0  0  0  0  0  0  0  0  0
   -4.9190   14.3110   -2.2650 N   0  0  0  0  0  0  0  0  0  0  0  0
   -5.2860   14.6710   -0.9930 N   0  0  0  0  0  0  0  0  0  0  0  0
   -4.2170   14.2370   -0.1290 C   0  0  2  0  0  0  0  0  0  0  0  0
   -6.5930   14.5270   -0.6630 N   0  0  0  0  0  0  0  0  0  0  0  0
   -4.4810   14.7250    1.2300 C   0  0  0  0  0  0  0  0  0  0  0  0
   -6.8110   14.6450    0.6060 C   0  0  0  0  0  0  0  0  0  0  0  0
   -5.7490   14.9210    1.6170 C   0  0  0  0  0  0  0  0  0  0  0  0
   -8.4540   14.4820    1.1090 Cl  0  0  0  0  0  0  0  0  0  0  0  0
  2  1  1  1
  2  3  1  0
  2  4  1  0
  4  5  1  1
  3  6  1  1
  3  7  1  0
  4  8  1  0
  7  8  1  0
  8  9  1  1
  6 10  1  0
 10 11  1  0
 10 12  1  0
 12 13  1  0
 11 14  1  0
 13 14  1  0
 13 15  1  0
 14 16  1  1
 15 17  2  0
 16 18  2  0
 17 18  1  0
 17 19  1  0
M  END
>  <%Rank>  (400) 
30.458015

>  <N_hits>  (400) 
2

>  <submitter_name>  (400) 
nan

>  <original SMILES>  (400) 
nan

>  <∆G_unbound>  (400) 
2.312912

>  <∆G_bound>  (400) 
-3.217904

>  <regarded>  (400) 
3Q6Z_0_A_γ,mArh-x1018_0_A_α

>  <ref_pdb>  (400) 
nan

>  <smiles>  (400) 
CC1OC(CN2NC3C=CC(Cl)=NN3N2)C(O)C1O

>  <submitter_email>  (400) 
nan

>  <disregarded>  (400) 


>  <LE>  (400) 
-0.291096

>  <submitter_institution>  (400) 
nan

>  <ref_mols>  (400) 
3Q6Z_0_A,mArh-x1018_0_A

>  <N_constrained_atoms>  (400) 
18.0

>  <ref_url>  (400) 
nan

>  <method>  (400) 
nan

>  <comRMSD>  (400) 
0.597668

>  <N_unconstrained_atoms>  (400) 
1.0

>  <∆∆G>  (400) 
-5.530816

>  <runtime>  (400) 
21.972499

>  <generation_date>  (400) 
nan

$$$$
mArh-1hjz_B_0_B_α-5CB5_0_J_α
     RDKit          3D

 13 13  0  0  0  0  0  0  0  0999 V2000
    1.0560   20.9030   -7.5750 O   0  0  0  0  0  0  0  0  0  0  0  0
   -0.1050   20.0200   -7.7250 S   0  0  0  0  0  0  0  0  0  0  0  0
    0.0230   19.0180   -8.7780 O   0  0  0  0  0  0  0  0  0  0  0  0
   -0.6520   19.5050   -6.4770 O   0  0  0  0  0  0  0  0  0  0  0  0
   -1.3470   21.1400   -8.3150 C   0  0  0  0  0  0  0  0  0  0  0  0
   -2.2170   21.7390   -7.2360 C   0  0  0  0  0  0  0  0  0  0  0  0
   -3.6340   21.8380   -7.6360 N   0  0  0  0  0  0  0  0  0  0  0  0
   -3.6920   22.6580   -8.8680 C   0  0  0  0  0  0  0  0  0  0  0  0
   -4.4710   22.4020   -6.5750 C   0  0  2  0  0  0  0  0  0  0  0  0
   -5.6850   21.6230   -6.5730 O   0  0  0  0  0  0  0  0  0  0  0  0
   -5.0740   23.2790   -9.0890 C   0  0  0  0  0  0  0  0  0  0  0  0
   -4.7850   23.8970   -6.8010 C   0  0  0  0  0  0  0  0  0  0  0  0
   -5.4140   24.2010   -8.0580 O   0  0  0  0  0  0  0  0  0  0  0  0
  1  2  2  0
  2  3  2  0
  2  4  1  0
  2  5  1  0
  5  6  1  0
  6  7  1  0
  7  8  1  0
  7  9  1  0
  9 10  1  6
  8 11  1  0
  9 12  1  0
 11 13  1  0
 12 13  1  0
M  CHG  1   4  -1
M  END
>  <%Rank>  (401) 
30.534351

>  <N_hits>  (401) 
2

>  <submitter_name>  (401) 
nan

>  <original SMILES>  (401) 
nan

>  <∆G_unbound>  (401) 
0.20604

>  <∆G_bound>  (401) 
-9.953816

>  <regarded>  (401) 
mArh-1hjz_B_0_B_α,5CB5_0_J_α

>  <ref_pdb>  (401) 
nan

>  <smiles>  (401) 
O=S(=O)([O-])CCN1CCOCC1O

>  <submitter_email>  (401) 
nan

>  <disregarded>  (401) 


>  <LE>  (401) 
-0.781527

>  <submitter_institution>  (401) 
nan

>  <ref_mols>  (401) 
mArh-1hjz_B_0_B,5CB5_0_J

>  <N_constrained_atoms>  (401) 
13.0

>  <ref_url>  (401) 
nan

>  <method>  (401) 
nan

>  <comRMSD>  (401) 
0.751534

>  <N_unconstrained_atoms>  (401) 
0.0

>  <∆∆G>  (401) 
-10.159856

>  <runtime>  (401) 
25.451125

>  <generation_date>  (401) 
nan

$$$$
mArh-5cms_O_14_O_β-mArh-5cb5_B_0_B_γ
     RDKit          3D

 16 16  0  0  0  0  0  0  0  0999 V2000
   -1.4090   20.7320   -8.4580 O   0  0  0  0  0  0  0  0  0  0  0  0
   -0.3110   19.8360   -7.7410 P   0  0  0  0  0  0  0  0  0  0  0  0
   -1.0030   19.4090   -6.3900 O   0  0  0  0  0  0  0  0  0  0  0  0
    0.9900   20.5080   -7.5880 O   0  0  0  0  0  0  0  0  0  0  0  0
   -0.2650   18.5640   -8.7000 O   0  0  0  0  0  0  0  0  0  0  0  0
   -1.5600   17.9720   -6.0650 P   0  0  2  0  0  0  0  0  0  0  0  0
   -0.3570   17.0070   -5.6270 O   0  0  0  0  0  0  0  0  0  0  0  0
   -2.5830   17.4300   -6.9780 O   0  0  0  0  0  0  0  0  0  0  0  0
   -2.1840   18.2720   -4.6530 O   0  0  0  0  0  0  0  0  0  0  0  0
   -0.6950   15.9610   -4.7310 C   0  0  2  0  0  0  0  0  0  0  0  0
   -0.0340   16.0320   -3.4630 O   0  0  0  0  0  0  0  0  0  0  0  0
   -0.4010   14.5230   -5.1670 C   0  0  1  0  0  0  0  0  0  0  0  0
    0.9960   14.1760   -5.2860 O   0  0  0  0  0  0  0  0  0  0  0  0
   -0.3060   14.7580   -2.8420 C   0  0  0  0  0  0  0  0  0  0  0  0
   -0.9210   13.8620   -3.9220 C   0  0  2  0  0  0  0  0  0  0  0  0
   -0.5140   12.5100   -3.8570 O   0  0  0  0  0  0  0  0  0  0  0  0
  1  2  1  0
  2  3  1  0
  2  4  2  0
  2  5  1  0
  3  6  1  0
  6  7  1  0
  6  8  2  0
  6  9  1  1
 10  7  1  6
 10 11  1  0
 10 12  1  0
 12 13  1  1
 11 14  1  0
 12 15  1  0
 14 15  1  0
 15 16  1  1
M  END
>  <%Rank>  (402) 
30.610687

>  <N_hits>  (402) 
2

>  <submitter_name>  (402) 
nan

>  <original SMILES>  (402) 
nan

>  <∆G_unbound>  (402) 
1.157846

>  <∆G_bound>  (402) 
-7.694834

>  <regarded>  (402) 
mArh-5cms_O_14_O_β,mArh-5cb5_B_0_B_γ

>  <ref_pdb>  (402) 
nan

>  <smiles>  (402) 
O=P(O)(O)OP(=O)(O)OC1OCC(O)C1O

>  <submitter_email>  (402) 
nan

>  <disregarded>  (402) 


>  <LE>  (402) 
-0.553292

>  <submitter_institution>  (402) 
nan

>  <ref_mols>  (402) 
mArh-5cms_O_14_O,mArh-5cb5_B_0_B

>  <N_constrained_atoms>  (402) 
16.0

>  <ref_url>  (402) 
nan

>  <method>  (402) 
nan

>  <comRMSD>  (402) 
0.713429

>  <N_unconstrained_atoms>  (402) 
0.0

>  <∆∆G>  (402) 
-8.85268

>  <runtime>  (402) 
34.060911

>  <generation_date>  (402) 
nan

$$$$
mArh-5cb5_F_1_F_α-mArh-5cb5_Q_0_Q_β
     RDKit          3D

 20 20  0  0  0  0  0  0  0  0999 V2000
   -1.8790   21.4810   -7.7590 C   0  0  0  0  0  0  0  0  0  0  0  0
   -0.5330   20.2880   -7.8490 P   0  0  2  0  0  0  0  0  0  0  0  0
   -0.5870   19.3760   -6.5530 O   0  0  0  0  0  0  0  0  0  0  0  0
   -2.8760   21.6820   -8.9020 C   0  0  2  0  0  0  0  0  0  0  0  0
    0.8140   20.9080   -7.9370 O   0  0  0  0  0  0  0  0  0  0  0  0
   -0.7790   19.0940   -8.8780 O   0  0  0  0  0  0  0  0  0  0  0  0
   -3.3340   23.1260   -9.1000 C   0  0  1  0  0  0  0  0  0  0  0  0
   -4.1030   21.0390   -8.5360 O   0  0  0  0  0  0  0  0  0  0  0  0
   -4.1840   23.3170  -10.2350 O   0  0  0  0  0  0  0  0  0  0  0  0
   -1.7240   18.4110   -6.0490 P   0  0  0  0  0  0  0  0  0  0  0  0
   -4.1210   23.2280   -7.8540 C   0  0  2  0  0  0  0  0  0  0  0  0
   -4.9910   22.0040   -8.0070 C   0  0  2  0  0  0  0  0  0  0  0  0
   -4.9470   24.3720   -7.8100 O   0  0  0  0  0  0  0  0  0  0  0  0
   -5.5250   21.5350   -6.7750 O   0  0  0  0  0  0  0  0  0  0  0  0
   -0.9560   17.1900   -5.3880 O   0  0  0  0  0  0  0  0  0  0  0  0
   -2.7600   17.9710   -7.0010 O   0  0  0  0  0  0  0  0  0  0  0  0
   -2.2540   19.2320   -4.7950 O   0  0  0  0  0  0  0  0  0  0  0  0
   -5.1730   24.4390   -6.5140 C   0  0  0  0  0  0  0  0  0  0  0  0
   -4.4950   25.5950   -5.8790 C   0  0  0  0  0  0  0  0  0  0  0  0
   -5.7970   23.5940   -5.9660 O   0  0  0  0  0  0  0  0  0  0  0  0
  1  2  1  0
  2  3  1  0
  4  1  1  1
  2  5  2  0
  2  6  1  6
  4  7  1  0
  4  8  1  0
  7  9  1  6
  3 10  1  0
  7 11  1  0
  8 12  1  0
 11 12  1  0
 11 13  1  6
 12 14  1  1
 10 15  1  0
 10 16  2  0
 10 17  1  0
 13 18  1  0
 18 19  1  0
 18 20  2  0
M  END
>  <%Rank>  (403) 
30.687023

>  <N_hits>  (403) 
2

>  <submitter_name>  (403) 
nan

>  <original SMILES>  (403) 
nan

>  <∆G_unbound>  (403) 
1.608377

>  <∆G_bound>  (403) 
-8.088744

>  <regarded>  (403) 
mArh-5cb5_F_1_F_α,mArh-5cb5_Q_0_Q_β

>  <ref_pdb>  (403) 
nan

>  <smiles>  (403) 
CC(=O)OC1C(O)OC(CP(=O)(O)OP(=O)(O)O)C1O

>  <submitter_email>  (403) 
nan

>  <disregarded>  (403) 


>  <LE>  (403) 
-0.484856

>  <submitter_institution>  (403) 
nan

>  <ref_mols>  (403) 
mArh-5cb5_F_1_F,mArh-5cb5_Q_0_Q

>  <N_constrained_atoms>  (403) 
20.0

>  <ref_url>  (403) 
nan

>  <method>  (403) 
nan

>  <comRMSD>  (403) 
0.762769

>  <N_unconstrained_atoms>  (403) 
0.0

>  <∆∆G>  (403) 
-9.697121

>  <runtime>  (403) 
35.479689

>  <generation_date>  (403) 
nan

$$$$
mArh-5cb5_E_0_E_β-5CB3_0_A_γ
     RDKit          3D

 16 16  0  0  0  0  0  0  0  0999 V2000
   -1.3600   20.5140   -8.5540 O   0  0  0  0  0  0  0  0  0  0  0  0
   -0.1580   19.8420   -7.7570 P   0  0  0  0  0  0  0  0  0  0  0  0
   -0.8060   19.4340   -6.3860 O   0  0  0  0  0  0  0  0  0  0  0  0
    1.0410   20.7210   -7.6370 O   0  0  0  0  0  0  0  0  0  0  0  0
    0.0440   18.5200   -8.6360 O   0  0  0  0  0  0  0  0  0  0  0  0
   -1.4760   18.0510   -6.0580 P   0  0  2  0  0  0  0  0  0  0  0  0
   -0.3180   16.9830   -5.7040 O   0  0  0  0  0  0  0  0  0  0  0  0
   -2.5750   17.6250   -6.9530 O   0  0  0  0  0  0  0  0  0  0  0  0
   -2.0040   18.4070   -4.6070 O   0  0  0  0  0  0  0  0  0  0  0  0
   -0.6590   15.9190   -4.8060 C   0  0  2  0  0  0  0  0  0  0  0  0
   -0.1160   16.0020   -3.4800 O   0  0  0  0  0  0  0  0  0  0  0  0
   -0.3010   14.4720   -5.1830 C   0  0  1  0  0  0  0  0  0  0  0  0
    1.0820   14.0820   -5.0450 O   0  0  0  0  0  0  0  0  0  0  0  0
   -0.4750   14.7340   -2.8780 C   0  0  0  0  0  0  0  0  0  0  0  0
   -1.0280   13.8650   -4.0160 C   0  0  2  0  0  0  0  0  0  0  0  0
   -0.7420   12.4870   -3.9030 O   0  0  0  0  0  0  0  0  0  0  0  0
  1  2  1  0
  2  3  1  0
  2  4  2  0
  2  5  1  0
  3  6  1  0
  6  7  1  0
  6  8  2  0
  6  9  1  1
 10  7  1  6
 10 11  1  0
 10 12  1  0
 12 13  1  1
 11 14  1  0
 12 15  1  0
 14 15  1  0
 15 16  1  1
M  END
>  <%Rank>  (404) 
30.763359

>  <N_hits>  (404) 
2

>  <submitter_name>  (404) 
nan

>  <original SMILES>  (404) 
nan

>  <∆G_unbound>  (404) 
1.157846

>  <∆G_bound>  (404) 
-8.038353

>  <regarded>  (404) 
mArh-5cb5_E_0_E_β,5CB3_0_A_γ

>  <ref_pdb>  (404) 
nan

>  <smiles>  (404) 
O=P(O)(O)OP(=O)(O)OC1OCC(O)C1O

>  <submitter_email>  (404) 
nan

>  <disregarded>  (404) 


>  <LE>  (404) 
-0.574762

>  <submitter_institution>  (404) 
nan

>  <ref_mols>  (404) 
mArh-5cb5_E_0_E,5CB3_0_A

>  <N_constrained_atoms>  (404) 
16.0

>  <ref_url>  (404) 
nan

>  <method>  (404) 
nan

>  <comRMSD>  (404) 
0.724639

>  <N_unconstrained_atoms>  (404) 
0.0

>  <∆∆G>  (404) 
-9.196199

>  <runtime>  (404) 
25.891229

>  <generation_date>  (404) 
nan

$$$$
mArh-3q6z_0_A_γ-mArh-x1018_0_A_α
     RDKit          3D

 19 21  0  0  0  0  0  0  0  0999 V2000
   -1.1260   12.6400   -3.6480 O   0  0  0  0  0  0  0  0  0  0  0  0
   -1.1660   13.7460   -4.5460 C   0  0  1  0  0  0  0  0  0  0  0  0
   -1.7370   15.0860   -4.0210 C   0  0  1  0  0  0  0  0  0  0  0  0
    0.2910   14.1650   -4.8190 C   0  0  2  0  0  0  0  0  0  0  0  0
    1.2130   13.5020   -3.9580 O   0  0  0  0  0  0  0  0  0  0  0  0
   -3.0200   15.2990   -3.2380 C   0  0  0  0  0  0  0  0  0  0  0  0
   -0.6400   15.7580   -3.4360 O   0  0  0  0  0  0  0  0  0  0  0  0
    0.1350   15.6760   -4.6140 C   0  0  1  0  0  0  0  0  0  0  0  0
    1.3070   16.5520   -4.5010 C   0  0  0  0  0  0  0  0  0  0  0  0
   -3.4870   14.4110   -2.2110 N   0  0  0  0  0  0  0  0  0  0  0  0
   -3.0800   14.7930   -0.8710 N   0  0  0  0  0  0  0  0  0  0  0  0
   -4.9100   14.3050   -2.2720 N   0  0  0  0  0  0  0  0  0  0  0  0
   -5.2800   14.6690   -1.0000 N   0  0  0  0  0  0  0  0  0  0  0  0
   -4.2100   14.2390   -0.1370 C   0  0  2  0  0  0  0  0  0  0  0  0
   -6.5860   14.5270   -0.6680 N   0  0  0  0  0  0  0  0  0  0  0  0
   -4.4730   14.7260    1.2230 C   0  0  0  0  0  0  0  0  0  0  0  0
   -6.8020   14.6450    0.6020 C   0  0  0  0  0  0  0  0  0  0  0  0
   -5.7400   14.9210    1.6130 C   0  0  0  0  0  0  0  0  0  0  0  0
   -8.4470   14.4840    1.1090 Cl  0  0  0  0  0  0  0  0  0  0  0  0
  2  1  1  1
  2  3  1  0
  2  4  1  0
  4  5  1  1
  3  6  1  1
  3  7  1  0
  4  8  1  0
  7  8  1  0
  8  9  1  1
  6 10  1  0
 10 11  1  0
 10 12  1  0
 12 13  1  0
 11 14  1  0
 13 14  1  0
 13 15  1  0
 14 16  1  1
 15 17  2  0
 16 18  2  0
 17 18  1  0
 17 19  1  0
M  END
>  <%Rank>  (405) 
30.839695

>  <N_hits>  (405) 
2

>  <submitter_name>  (405) 
nan

>  <original SMILES>  (405) 
nan

>  <∆G_unbound>  (405) 
2.312912

>  <∆G_bound>  (405) 
-3.156217

>  <regarded>  (405) 
mArh-3q6z_0_A_γ,mArh-x1018_0_A_α

>  <ref_pdb>  (405) 
nan

>  <smiles>  (405) 
CC1OC(CN2NC3C=CC(Cl)=NN3N2)C(O)C1O

>  <submitter_email>  (405) 
nan

>  <disregarded>  (405) 


>  <LE>  (405) 
-0.287849

>  <submitter_institution>  (405) 
nan

>  <ref_mols>  (405) 
mArh-3q6z_0_A,mArh-x1018_0_A

>  <N_constrained_atoms>  (405) 
18.0

>  <ref_url>  (405) 
nan

>  <method>  (405) 
nan

>  <comRMSD>  (405) 
0.597744

>  <N_unconstrained_atoms>  (405) 
1.0

>  <∆∆G>  (405) 
-5.469129

>  <runtime>  (405) 
24.417509

>  <generation_date>  (405) 
nan

$$$$
mArh-6mea_B_0_B_α-5CB5_0_G_γ
     RDKit          3D

 22 23  0  0  0  0  0  0  0  0999 V2000
   -2.2980   21.7660   -8.9840 C   0  0  0  0  0  0  0  0  0  0  0  0
   -3.1710   22.3660   -7.9590 C   0  0  2  0  0  0  0  0  0  0  0  0
   -4.1890   21.4360   -7.7730 O   0  0  0  0  0  0  0  0  0  0  0  0
   -3.9660   23.7000   -8.1200 C   0  0  1  0  0  0  0  0  0  0  0  0
   -4.4190   23.9940   -9.4420 O   0  0  0  0  0  0  0  0  0  0  0  0
   -4.5710   22.1630   -6.6900 C   0  0  1  0  0  0  0  0  0  0  0  0
   -5.2040   23.3890   -7.2550 C   0  0  1  0  0  0  0  0  0  0  0  0
   -5.0670   21.4340   -5.6460 O   0  0  0  0  0  0  0  0  0  0  0  0
   -5.5080   24.3660   -6.2630 O   0  0  0  0  0  0  0  0  0  0  0  0
   -3.7710   21.1210   -5.1260 C   0  0  0  0  0  0  0  0  0  0  0  0
   -2.7370   20.4570   -6.0700 C   0  0  0  0  0  0  0  0  0  0  0  0
   -1.9860   19.2680   -5.4420 C   0  0  0  0  0  0  0  0  0  0  0  0
   -0.6400   18.9740   -6.1010 C   0  0  0  0  0  0  0  0  0  0  0  0
    0.3430   18.2720   -5.1450 C   0  0  0  0  0  0  0  0  0  0  0  0
    0.5970   16.8570   -5.6060 C   0  0  0  0  0  0  0  0  0  0  0  0
    0.7350   15.7550   -4.5560 C   0  0  1  0  0  0  0  0  0  0  0  0
   -0.1520   16.0290   -3.4500 O   0  0  0  0  0  0  0  0  0  0  0  0
    0.3580   14.3550   -5.0730 C   0  0  1  0  0  0  0  0  0  0  0  0
    1.3280   13.3380   -4.9080 O   0  0  0  0  0  0  0  0  0  0  0  0
   -0.7750   14.8010   -3.0640 C   0  0  0  0  0  0  0  0  0  0  0  0
   -0.9170   13.9970   -4.3350 C   0  0  2  0  0  0  0  0  0  0  0  0
   -0.9600   12.5980   -4.1290 O   0  0  0  0  0  0  0  0  0  0  0  0
  2  1  1  6
  2  3  1  0
  2  4  1  0
  4  5  1  6
  3  6  1  0
  4  7  1  0
  6  7  1  0
  6  8  1  6
  7  9  1  1
  8 10  1  0
 10 11  1  0
 11 12  1  0
 12 13  1  0
 13 14  1  0
 14 15  1  0
 16 15  1  6
 16 17  1  0
 16 18  1  0
 18 19  1  1
 17 20  1  0
 18 21  1  0
 20 21  1  0
 21 22  1  1
M  END
>  <%Rank>  (406) 
30.916031

>  <N_hits>  (406) 
2

>  <submitter_name>  (406) 
nan

>  <original SMILES>  (406) 
nan

>  <∆G_unbound>  (406) 
0.187336

>  <∆G_bound>  (406) 
-11.274969

>  <regarded>  (406) 
mArh-6mea_B_0_B_α,5CB5_0_G_γ

>  <ref_pdb>  (406) 
nan

>  <smiles>  (406) 
CC1OC(OCCCCCCC2OCC(O)C2O)C(O)C1O

>  <submitter_email>  (406) 
nan

>  <disregarded>  (406) 


>  <LE>  (406) 
-0.521014

>  <submitter_institution>  (406) 
nan

>  <ref_mols>  (406) 
mArh-6mea_B_0_B,5CB5_0_G

>  <N_constrained_atoms>  (406) 
17.0

>  <ref_url>  (406) 
nan

>  <method>  (406) 
nan

>  <comRMSD>  (406) 
0.57428

>  <N_unconstrained_atoms>  (406) 
5.0

>  <∆∆G>  (406) 
-11.462304

>  <runtime>  (406) 
37.30849

>  <generation_date>  (406) 
nan

$$$$
mArh-x0926_0_A_α-mArh-5cb5_R_0_R_γ
     RDKit          3D

 16 17  0  0  0  0  0  0  0  0999 V2000
   -6.5710   15.0580   -0.8690 O   0  0  0  0  0  0  0  0  0  0  0  0
   -5.3720   15.0410   -0.5860 C   0  0  0  0  0  0  0  0  0  0  0  0
   -4.9100   14.8470    0.8530 C   0  0  0  0  0  0  0  0  0  0  0  0
   -4.3870   15.1850   -1.5490 N   0  0  0  0  0  0  0  0  0  0  0  0
   -3.0040   15.2400   -1.2060 N   0  0  0  0  0  0  0  0  0  0  0  0
   -3.5460   15.3710    1.1090 C   0  0  0  0  0  0  0  0  0  0  0  0
   -2.1110   14.3320   -1.9880 C   0  0  0  0  0  0  0  0  0  0  0  0
   -2.6910   15.5400    0.0990 C   0  0  0  0  0  0  0  0  0  0  0  0
   -1.6810   14.9530   -3.3420 C   0  0  1  0  0  0  0  0  0  0  0  0
   -0.5850   15.8910   -3.2120 O   0  0  0  0  0  0  0  0  0  0  0  0
   -1.2080   13.9420   -4.4210 C   0  0  2  0  0  0  0  0  0  0  0  0
   -0.8820   12.6690   -3.8600 O   0  0  0  0  0  0  0  0  0  0  0  0
   -0.1590   16.0110   -4.5770 C   0  0  2  0  0  0  0  0  0  0  0  0
    0.0570   14.5620   -5.0170 C   0  0  1  0  0  0  0  0  0  0  0  0
    0.9730   16.9880   -4.7180 C   0  0  0  0  0  0  0  0  0  0  0  0
    1.2140   13.9260   -4.4770 O   0  0  0  0  0  0  0  0  0  0  0  0
  1  2  2  0
  2  3  1  0
  2  4  1  0
  4  5  1  0
  3  6  1  0
  5  7  1  0
  5  8  1  0
  6  8  2  0
  9  7  1  1
  9 10  1  0
  9 11  1  0
 11 12  1  1
 10 13  1  0
 11 14  1  0
 13 14  1  0
 13 15  1  1
 14 16  1  1
M  END
>  <%Rank>  (407) 
30.992366

>  <N_hits>  (407) 
2

>  <submitter_name>  (407) 
nan

>  <original SMILES>  (407) 
nan

>  <∆G_unbound>  (407) 
0.750015

>  <∆G_bound>  (407) 
-4.394208

>  <regarded>  (407) 
mArh-x0926_0_A_α,mArh-5cb5_R_0_R_γ

>  <ref_pdb>  (407) 
nan

>  <smiles>  (407) 
CC1OC(CN2C=CCC(=O)N2)C(O)C1O

>  <submitter_email>  (407) 
nan

>  <disregarded>  (407) 


>  <LE>  (407) 
-0.321514

>  <submitter_institution>  (407) 
nan

>  <ref_mols>  (407) 
mArh-x0926_0_A,mArh-5cb5_R_0_R

>  <N_constrained_atoms>  (407) 
15.0

>  <ref_url>  (407) 
nan

>  <method>  (407) 
nan

>  <comRMSD>  (407) 
0.542002

>  <N_unconstrained_atoms>  (407) 
1.0

>  <∆∆G>  (407) 
-5.144222

>  <runtime>  (407) 
27.331208

>  <generation_date>  (407) 
nan

$$$$
mArh-5cms_A_0_A_γ-mArh-x0465_0_A_α
     RDKit          3D

 19 20  0  0  0  0  0  0  0  0999 V2000
   -0.3180   12.0730   -3.9030 N   0  0  0  0  0  0  0  0  0  0  0  0
    0.1510   11.4430   -5.1140 O   0  0  0  0  0  0  0  0  0  0  0  0
   -0.9070   10.6960   -5.5450 C   0  0  0  0  0  0  0  0  0  0  0  0
    0.5710   11.7870   -2.8610 C   0  0  0  0  0  0  0  0  0  0  0  0
   -0.5890   13.4820   -4.1690 C   0  0  1  0  0  0  0  0  0  0  0  0
    1.2940   12.5740   -2.2710 O   0  0  0  0  0  0  0  0  0  0  0  0
    0.5420   10.4600   -2.5510 O   0  0  0  0  0  0  0  0  0  0  0  0
   -0.6790   14.3940   -2.9480 C   0  0  0  0  0  0  0  0  0  0  0  0
    0.3930   14.1720   -5.1160 C   0  0  2  0  0  0  0  0  0  0  0  0
    1.6110   13.4430   -5.2480 O   0  0  0  0  0  0  0  0  0  0  0  0
   -0.2310   15.6850   -3.3600 O   0  0  0  0  0  0  0  0  0  0  0  0
    0.6800   15.5350   -4.4630 C   0  0  2  0  0  0  0  0  0  0  0  0
   -0.7610    9.7820   -6.5970 C   0  0  0  0  0  0  0  0  0  0  0  0
   -2.1470   10.8410   -4.9280 C   0  0  0  0  0  0  0  0  0  0  0  0
    0.4590   16.7330   -5.3780 C   0  0  0  0  0  0  0  0  0  0  0  0
    0.4090    9.6060   -7.2300 F   0  0  0  0  0  0  0  0  0  0  0  0
   -1.8440    9.0220   -7.0180 C   0  0  0  0  0  0  0  0  0  0  0  0
   -3.2290   10.0830   -5.3500 C   0  0  0  0  0  0  0  0  0  0  0  0
   -3.0840    9.1730   -6.3910 C   0  0  0  0  0  0  0  0  0  0  0  0
  1  2  1  0
  2  3  1  0
  1  4  1  0
  5  1  1  1
  4  6  2  0
  4  7  1  0
  5  8  1  0
  5  9  1  0
  9 10  1  1
  8 11  1  0
  9 12  1  0
 11 12  1  0
  3 13  2  0
  3 14  1  0
 12 15  1  6
 13 16  1  0
 13 17  1  0
 14 18  2  0
 17 19  2  0
 18 19  1  0
M  END
>  <%Rank>  (408) 
31.068702

>  <N_hits>  (408) 
2

>  <submitter_name>  (408) 
nan

>  <original SMILES>  (408) 
nan

>  <∆G_unbound>  (408) 
2.109245

>  <∆G_bound>  (408) 
-0.835157

>  <regarded>  (408) 
mArh-5cms_A_0_A_γ,mArh-x0465_0_A_α

>  <ref_pdb>  (408) 
nan

>  <smiles>  (408) 
CC1OCC(N(Oc2ccccc2F)C(=O)O)C1O

>  <submitter_email>  (408) 
nan

>  <disregarded>  (408) 


>  <LE>  (408) 
-0.154969

>  <submitter_institution>  (408) 
nan

>  <ref_mols>  (408) 
mArh-5cms_A_0_A,mArh-x0465_0_A

>  <N_constrained_atoms>  (408) 
19.0

>  <ref_url>  (408) 
nan

>  <method>  (408) 
nan

>  <comRMSD>  (408) 
0.580516

>  <N_unconstrained_atoms>  (408) 
0.0

>  <∆∆G>  (408) 
-2.944402

>  <runtime>  (408) 
28.589473

>  <generation_date>  (408) 
nan

$$$$
mArh-5dus_0_A_γ-mArh-x0844_0_A_α
     RDKit          3D

 17 18  0  0  0  0  0  0  0  0999 V2000
   -2.1170   12.9020   -4.5820 O   0  0  0  0  0  0  0  0  0  0  0  0
   -1.0020   13.5420   -3.9880 C   0  0  2  0  0  0  0  0  0  0  0  0
   -1.4000   14.7190   -3.1220 C   0  0  1  0  0  0  0  0  0  0  0  0
   -0.1020   14.2030   -5.0290 C   0  0  2  0  0  0  0  0  0  0  0  0
    1.1410   13.5220   -5.0970 O   0  0  0  0  0  0  0  0  0  0  0  0
   -1.9000   14.3180   -1.7410 C   0  0  0  0  0  0  0  0  0  0  0  0
   -0.2420   15.5530   -3.1370 O   0  0  0  0  0  0  0  0  0  0  0  0
   -0.0730   15.6600   -4.5530 C   0  0  1  0  0  0  0  0  0  0  0  0
    1.1590   16.4580   -4.8560 C   0  0  0  0  0  0  0  0  0  0  0  0
   -3.3320   14.2240   -1.7380 O   0  0  0  0  0  0  0  0  0  0  0  0
   -4.0260   15.2940   -1.0930 C   0  0  2  0  0  0  0  0  0  0  0  0
   -3.5890   15.2850    0.3390 C   0  0  0  0  0  0  0  0  0  0  0  0
   -5.5320   15.1180   -1.3180 C   0  0  0  0  0  0  0  0  0  0  0  0
   -4.4110   14.9900    1.3350 C   0  0  0  0  0  0  0  0  0  0  0  0
   -6.3640   14.8500   -0.0870 C   0  0  0  0  0  0  0  0  0  0  0  0
   -7.5920   14.7910   -0.1260 O   0  0  0  0  0  0  0  0  0  0  0  0
   -5.7090   14.6710    1.1010 N   0  0  0  0  0  0  0  0  0  0  0  0
  2  1  1  6
  2  3  1  0
  2  4  1  0
  4  5  1  1
  3  6  1  1
  3  7  1  0
  4  8  1  0
  7  8  1  0
  8  9  1  1
  6 10  1  0
 11 10  1  6
 11 12  1  0
 11 13  1  0
 12 14  2  0
 13 15  1  0
 15 16  2  0
 14 17  1  0
 15 17  1  0
M  END
>  <%Rank>  (409) 
31.145038

>  <N_hits>  (409) 
2

>  <submitter_name>  (409) 
nan

>  <original SMILES>  (409) 
nan

>  <∆G_unbound>  (409) 
0.180266

>  <∆G_bound>  (409) 
-5.02035

>  <regarded>  (409) 
mArh-5dus_0_A_γ,mArh-x0844_0_A_α

>  <ref_pdb>  (409) 
nan

>  <smiles>  (409) 
CC1OC(COC2C=CNC(=O)C2)C(O)C1O

>  <submitter_email>  (409) 
nan

>  <disregarded>  (409) 


>  <LE>  (409) 
-0.305919

>  <submitter_institution>  (409) 
nan

>  <ref_mols>  (409) 
mArh-5dus_0_A,mArh-x0844_0_A

>  <N_constrained_atoms>  (409) 
16.0

>  <ref_url>  (409) 
nan

>  <method>  (409) 
nan

>  <comRMSD>  (409) 
0.560653

>  <N_unconstrained_atoms>  (409) 
1.0

>  <∆∆G>  (409) 
-5.200615

>  <runtime>  (409) 
32.085467

>  <generation_date>  (409) 
nan

$$$$
4IQY_0_B_γ-mArh-5cms_K_10_K_β
     RDKit          3D

 16 16  0  0  0  0  0  0  0  0999 V2000
   -1.5040   12.5750   -3.7430 O   0  0  0  0  0  0  0  0  0  0  0  0
   -0.3970   13.4390   -3.5960 C   0  0  2  0  0  0  0  0  0  0  0  0
   -0.5820   14.4960   -2.5060 C   0  0  0  0  0  0  0  0  0  0  0  0
   -0.1020   14.2560   -4.8530 C   0  0  2  0  0  0  0  0  0  0  0  0
    1.3290   14.2280   -4.9820 O   0  0  0  0  0  0  0  0  0  0  0  0
   -0.2420   15.7590   -3.0920 O   0  0  0  0  0  0  0  0  0  0  0  0
   -0.6600   15.6330   -4.4590 C   0  0  1  0  0  0  0  0  0  0  0  0
   -0.1500   16.8480   -5.2170 C   0  0  0  0  0  0  0  0  0  0  0  0
   -1.3660   18.0050   -5.9100 P   0  0  1  0  0  0  0  0  0  0  0  0
   -0.4680   19.1570   -6.4800 O   0  0  0  0  0  0  0  0  0  0  0  0
   -2.3690   17.4130   -6.8550 O   0  0  0  0  0  0  0  0  0  0  0  0
   -2.0970   18.8200   -4.7470 O   0  0  0  0  0  0  0  0  0  0  0  0
   -0.2020   19.8490   -7.8390 P   0  0  0  0  0  0  0  0  0  0  0  0
   -1.6360   20.3440   -8.3030 O   0  0  0  0  0  0  0  0  0  0  0  0
    0.8330   20.9010   -7.8330 O   0  0  0  0  0  0  0  0  0  0  0  0
    0.0540   18.6630   -8.8730 O   0  0  0  0  0  0  0  0  0  0  0  0
  2  1  1  6
  2  3  1  0
  2  4  1  0
  4  5  1  1
  3  6  1  0
  4  7  1  0
  6  7  1  0
  7  8  1  6
  8  9  1  0
  9 10  1  0
  9 11  2  0
  9 12  1  1
 10 13  1  0
 13 14  1  0
 13 15  2  0
 13 16  1  0
M  END
>  <%Rank>  (410) 
31.221374

>  <N_hits>  (410) 
2

>  <submitter_name>  (410) 
nan

>  <original SMILES>  (410) 
nan

>  <∆G_unbound>  (410) 
1.057928

>  <∆G_bound>  (410) 
-9.360341

>  <regarded>  (410) 
4IQY_0_B_γ,mArh-5cms_K_10_K_β

>  <ref_pdb>  (410) 
nan

>  <smiles>  (410) 
O=P(O)(O)OP(=O)(O)CC1OCC(O)C1O

>  <submitter_email>  (410) 
nan

>  <disregarded>  (410) 


>  <LE>  (410) 
-0.651142

>  <submitter_institution>  (410) 
nan

>  <ref_mols>  (410) 
4IQY_0_B,mArh-5cms_K_10_K

>  <N_constrained_atoms>  (410) 
16.0

>  <ref_url>  (410) 
nan

>  <method>  (410) 
nan

>  <comRMSD>  (410) 
0.76469

>  <N_unconstrained_atoms>  (410) 
0.0

>  <∆∆G>  (410) 
-10.418269

>  <runtime>  (410) 
34.020029

>  <generation_date>  (410) 
nan

$$$$
5CMS_0_E_γ-mArh-x0371_0_A_α
     RDKit          3D

 23 24  0  0  0  0  0  0  0  0999 V2000
   -0.9110   11.9950   -4.0860 O   0  0  0  0  0  0  0  0  0  0  0  0
   -1.1070   13.4110   -4.1620 C   0  0  1  0  0  0  0  0  0  0  0  0
   -0.7010   14.1080   -2.8590 C   0  0  2  0  0  0  0  0  0  0  0  0
   -0.1250   14.0280   -5.1370 C   0  0  2  0  0  0  0  0  0  0  0  0
    1.1460   13.3840   -5.0700 O   0  0  0  0  0  0  0  0  0  0  0  0
   -1.8350   14.3230   -1.8440 C   0  0  0  0  0  0  0  0  0  0  0  0
   -0.1290   15.3900   -3.2350 O   0  0  0  0  0  0  0  0  0  0  0  0
   -0.2070   15.4830   -4.6690 C   0  0  1  0  0  0  0  0  0  0  0  0
    0.8070   16.4830   -5.2000 C   0  0  0  0  0  0  0  0  0  0  0  0
   -1.3650   14.3950   -0.3890 C   0  0  0  0  0  0  0  0  0  0  0  0
   -2.4280   14.8840    0.6010 C   0  0  0  0  0  0  0  0  0  0  0  0
   -3.8950   14.9410    0.1330 C   0  0  0  0  0  0  0  0  0  0  0  0
   -4.8060   14.4820    1.2620 C   0  0  0  0  0  0  0  0  0  0  0  0
   -6.3290   14.3910    1.0740 C   0  0  0  0  0  0  0  0  0  0  0  0
   -6.9880   14.3820    2.4740 C   0  0  0  0  0  0  0  0  0  0  0  0
   -8.4030   14.6420    2.5510 N   0  0  0  0  0  0  0  0  0  0  0  0
   -8.9480   15.6190    3.3690 C   0  0  0  0  0  0  0  0  0  0  0  0
   -9.6200   16.5290    2.9000 O   0  0  0  0  0  0  0  0  0  0  0  0
   -8.6910   15.5100    4.8020 C   0  0  0  0  0  0  0  0  0  0  0  0
   -8.0880   14.3920    5.3230 O   0  0  0  0  0  0  0  0  0  0  0  0
   -8.9650   16.3910    5.8320 C   0  0  0  0  0  0  0  0  0  0  0  0
   -7.9820   14.5730    6.6660 C   0  0  0  0  0  0  0  0  0  0  0  0
   -8.5100   15.7880    7.0300 C   0  0  0  0  0  0  0  0  0  0  0  0
  2  1  1  1
  2  3  1  0
  2  4  1  0
  4  5  1  1
  3  6  1  1
  3  7  1  0
  4  8  1  0
  7  8  1  0
  8  9  1  6
  6 10  1  0
 10 11  1  0
 11 12  1  0
 12 13  1  0
 13 14  1  0
 14 15  1  0
 15 16  1  0
 16 17  1  0
 17 18  2  0
 17 19  1  0
 19 20  1  0
 19 21  2  0
 20 22  1  0
 21 23  1  0
 22 23  2  0
M  END
>  <%Rank>  (411) 
31.29771

>  <N_hits>  (411) 
2

>  <submitter_name>  (411) 
nan

>  <original SMILES>  (411) 
nan

>  <∆G_unbound>  (411) 
0.037706

>  <∆G_bound>  (411) 
-7.803688

>  <regarded>  (411) 
5CMS_0_E_γ,mArh-x0371_0_A_α

>  <ref_pdb>  (411) 
nan

>  <smiles>  (411) 
CC1OC(CCCCCCCNC(=O)c2ccco2)C(O)C1O

>  <submitter_email>  (411) 
nan

>  <disregarded>  (411) 


>  <LE>  (411) 
-0.34093

>  <submitter_institution>  (411) 
nan

>  <ref_mols>  (411) 
5CMS_0_E,mArh-x0371_0_A

>  <N_constrained_atoms>  (411) 
16.0

>  <ref_url>  (411) 
nan

>  <method>  (411) 
nan

>  <comRMSD>  (411) 
0.391248

>  <N_unconstrained_atoms>  (411) 
7.0

>  <∆∆G>  (411) 
-7.841394

>  <runtime>  (411) 
35.124223

>  <generation_date>  (411) 
nan

$$$$
mArh-5cb5_H_0_H_α-mArh-5cms_L_11_L_β
     RDKit          3D

 20 20  0  0  0  0  0  0  0  0999 V2000
   -2.2590   22.1380   -8.1450 C   0  0  0  0  0  0  0  0  0  0  0  0
   -3.5530   22.1410   -8.9370 C   0  0  1  0  0  0  0  0  0  0  0  0
   -4.4900   21.2000   -8.4200 O   0  0  0  0  0  0  0  0  0  0  0  0
   -4.2370   23.5080   -8.8560 C   0  0  1  0  0  0  0  0  0  0  0  0
   -4.7060   23.9160  -10.1360 O   0  0  0  0  0  0  0  0  0  0  0  0
   -5.1240   21.8940   -7.3680 C   0  0  2  0  0  0  0  0  0  0  0  0
   -5.3880   23.2980   -7.8680 C   0  0  1  0  0  0  0  0  0  0  0  0
   -4.2690   22.0380   -6.2580 O   0  0  0  0  0  0  0  0  0  0  0  0
   -5.4650   24.2020   -6.7450 O   0  0  0  0  0  0  0  0  0  0  0  0
   -3.9700   20.7780   -5.7250 C   0  0  0  0  0  0  0  0  0  0  0  0
   -2.5500   20.5660   -5.1970 C   0  0  0  0  0  0  0  0  0  0  0  0
   -2.2920   19.1940   -4.8430 O   0  0  0  0  0  0  0  0  0  0  0  0
   -1.7410   18.1730   -5.9420 P   0  0  1  0  0  0  0  0  0  0  0  0
   -0.3180   18.6770   -6.3790 O   0  0  0  0  0  0  0  0  0  0  0  0
   -1.3950   16.8350   -5.1330 O   0  0  0  0  0  0  0  0  0  0  0  0
   -2.7010   17.8270   -6.9950 O   0  0  0  0  0  0  0  0  0  0  0  0
   -0.0160   19.5080   -7.6810 P   0  0  0  0  0  0  0  0  0  0  0  0
   -1.4140   20.0490   -8.1880 O   0  0  0  0  0  0  0  0  0  0  0  0
    1.0080   20.5810   -7.5770 O   0  0  0  0  0  0  0  0  0  0  0  0
    0.1340   18.4510   -8.8470 O   0  0  0  0  0  0  0  0  0  0  0  0
  2  1  1  1
  2  3  1  0
  2  4  1  0
  4  5  1  6
  3  6  1  0
  4  7  1  0
  6  7  1  0
  6  8  1  1
  7  9  1  1
  8 10  1  0
 10 11  1  0
 11 12  1  0
 12 13  1  0
 13 14  1  0
 13 15  1  1
 13 16  2  0
 14 17  1  0
 17 18  1  0
 17 19  2  0
 17 20  1  0
M  END
>  <%Rank>  (412) 
31.374046

>  <N_hits>  (412) 
2

>  <submitter_name>  (412) 
nan

>  <original SMILES>  (412) 
nan

>  <∆G_unbound>  (412) 
3.064741

>  <∆G_bound>  (412) 
-11.165288

>  <regarded>  (412) 
mArh-5cb5_H_0_H_α,mArh-5cms_L_11_L_β

>  <ref_pdb>  (412) 
nan

>  <smiles>  (412) 
CC1OC(OCCOP(=O)(O)OP(=O)(O)O)C(O)C1O

>  <submitter_email>  (412) 
nan

>  <disregarded>  (412) 


>  <LE>  (412) 
-0.711501

>  <submitter_institution>  (412) 
nan

>  <ref_mols>  (412) 
mArh-5cb5_H_0_H,mArh-5cms_L_11_L

>  <N_constrained_atoms>  (412) 
18.0

>  <ref_url>  (412) 
nan

>  <method>  (412) 
nan

>  <comRMSD>  (412) 
0.783869

>  <N_unconstrained_atoms>  (412) 
2.0

>  <∆∆G>  (412) 
-14.230029

>  <runtime>  (412) 
32.962529

>  <generation_date>  (412) 
nan

$$$$
mArh-5cms_K_10_K_α-1HJZ_0_A_α
     RDKit          3D

 20 21  0  0  0  0  0  0  0  0999 V2000
   -1.2590   21.8820   -8.3820 C   0  0  1  0  0  0  0  0  0  0  0  0
   -2.1820   22.1820   -7.2310 C   0  0  0  0  0  0  0  0  0  0  0  0
   -3.6250   22.3340   -7.4960 N   0  0  0  0  0  0  0  0  0  0  0  0
   -0.2090   20.4540   -7.9200 S   0  0  0  0  0  0  0  0  0  0  0  0
   -1.9120   22.3040   -9.7170 C   0  0  2  0  0  0  0  0  0  0  0  0
    1.2530   21.0980   -7.7030 O   0  0  0  0  0  0  0  0  0  0  0  0
   -0.2220   19.1500   -8.8380 O   0  0  0  0  0  0  0  0  0  0  0  0
   -0.7300   19.9720   -6.4880 O   0  0  0  0  0  0  0  0  0  0  0  0
   -2.2400   21.3770  -10.7590 O   0  0  0  0  0  0  0  0  0  0  0  0
   -1.4490   23.5650  -10.4280 C   0  0  1  0  0  0  0  0  0  0  0  0
   -0.1770   23.6050  -11.0420 O   0  0  0  0  0  0  0  0  0  0  0  0
   -2.9750   22.2060  -11.7040 C   0  0  2  0  0  0  0  0  0  0  0  0
   -2.4930   23.6660  -11.5050 C   0  0  1  0  0  0  0  0  0  0  0  0
   -3.8800   22.6330   -8.9290 C   0  0  0  0  0  0  0  0  0  0  0  0
   -3.9570   23.5640   -6.7390 C   0  0  0  0  0  0  0  0  0  0  0  0
   -4.3860   22.1670  -11.5350 O   0  0  0  0  0  0  0  0  0  0  0  0
   -3.5460   24.5920  -11.2500 O   0  0  0  0  0  0  0  0  0  0  0  0
   -5.3060   23.1300   -9.1780 C   0  0  0  0  0  0  0  0  0  0  0  0
   -5.3830   23.9620   -7.0210 C   0  0  0  0  0  0  0  0  0  0  0  0
   -5.5690   24.2840   -8.3920 O   0  0  0  0  0  0  0  0  0  0  0  0
  1  2  1  1
  2  3  1  0
  1  4  1  0
  1  5  1  0
  4  6  1  0
  4  7  1  0
  4  8  1  0
  5  9  1  6
  5 10  1  0
 10 11  1  6
  9 12  1  0
 10 13  1  0
 12 13  1  0
  3 14  1  0
  3 15  1  0
 12 16  1  1
 13 17  1  1
 14 18  1  0
 15 19  1  0
 18 20  1  0
 19 20  1  0
M  END
>  <%Rank>  (413) 
31.450382

>  <N_hits>  (413) 
2

>  <submitter_name>  (413) 
nan

>  <original SMILES>  (413) 
nan

>  <∆G_unbound>  (413) 
1.681194

>  <∆G_bound>  (413) 
-2.7578

>  <regarded>  (413) 
mArh-5cms_K_10_K_α,1HJZ_0_A_α

>  <ref_pdb>  (413) 
nan

>  <smiles>  (413) 
OC1OC(C(CN2CCOCC2)S(O)(O)O)C(O)C1O

>  <submitter_email>  (413) 
nan

>  <disregarded>  (413) 


>  <LE>  (413) 
-0.22195

>  <submitter_institution>  (413) 
nan

>  <ref_mols>  (413) 
mArh-5cms_K_10_K,1HJZ_0_A

>  <N_constrained_atoms>  (413) 
20.0

>  <ref_url>  (413) 
nan

>  <method>  (413) 
nan

>  <comRMSD>  (413) 
0.634316

>  <N_unconstrained_atoms>  (413) 
0.0

>  <∆∆G>  (413) 
-4.438994

>  <runtime>  (413) 
32.866068

>  <generation_date>  (413) 
nan

$$$$
mArh-2bfq_0_A_γ-mArh-5cb5_A_0_A_β
     RDKit          3D

 16 16  0  0  0  0  0  0  0  0999 V2000
   -1.7630   13.2060   -3.8710 O   0  0  0  0  0  0  0  0  0  0  0  0
   -0.4920   13.8100   -3.7510 C   0  0  2  0  0  0  0  0  0  0  0  0
   -0.3930   14.8260   -2.6040 C   0  0  0  0  0  0  0  0  0  0  0  0
   -0.1160   14.6320   -4.9740 C   0  0  2  0  0  0  0  0  0  0  0  0
    1.3020   14.4810   -5.1120 O   0  0  0  0  0  0  0  0  0  0  0  0
    0.0120   16.0790   -3.1910 O   0  0  0  0  0  0  0  0  0  0  0  0
   -0.5500   16.0210   -4.5080 C   0  0  1  0  0  0  0  0  0  0  0  0
   -0.1400   17.2460   -5.3220 C   0  0  0  0  0  0  0  0  0  0  0  0
   -1.5350   18.2550   -5.9140 P   0  0  1  0  0  0  0  0  0  0  0  0
   -0.9990   19.5490   -6.6240 O   0  0  0  0  0  0  0  0  0  0  0  0
   -2.5660   17.5150   -6.7110 O   0  0  0  0  0  0  0  0  0  0  0  0
   -2.1410   18.9790   -4.6260 O   0  0  0  0  0  0  0  0  0  0  0  0
   -0.2350   19.9030   -7.9230 P   0  0  0  0  0  0  0  0  0  0  0  0
   -1.3860   20.5350   -8.8210 O   0  0  0  0  0  0  0  0  0  0  0  0
    0.9390   20.7830   -7.7840 O   0  0  0  0  0  0  0  0  0  0  0  0
    0.0050   18.5450   -8.7380 O   0  0  0  0  0  0  0  0  0  0  0  0
  2  1  1  6
  2  3  1  0
  2  4  1  0
  4  5  1  1
  3  6  1  0
  4  7  1  0
  6  7  1  0
  7  8  1  6
  8  9  1  0
  9 10  1  0
  9 11  2  0
  9 12  1  1
 10 13  1  0
 13 14  1  0
 13 15  2  0
 13 16  1  0
M  END
>  <%Rank>  (414) 
31.526718

>  <N_hits>  (414) 
2

>  <submitter_name>  (414) 
nan

>  <original SMILES>  (414) 
nan

>  <∆G_unbound>  (414) 
1.057928

>  <∆G_bound>  (414) 
-8.93767

>  <regarded>  (414) 
mArh-2bfq_0_A_γ,mArh-5cb5_A_0_A_β

>  <ref_pdb>  (414) 
nan

>  <smiles>  (414) 
O=P(O)(O)OP(=O)(O)CC1OCC(O)C1O

>  <submitter_email>  (414) 
nan

>  <disregarded>  (414) 


>  <LE>  (414) 
-0.624725

>  <submitter_institution>  (414) 
nan

>  <ref_mols>  (414) 
mArh-2bfq_0_A,mArh-5cb5_A_0_A

>  <N_constrained_atoms>  (414) 
16.0

>  <ref_url>  (414) 
nan

>  <method>  (414) 
nan

>  <comRMSD>  (414) 
0.753196

>  <N_unconstrained_atoms>  (414) 
0.0

>  <∆∆G>  (414) 
-9.995598

>  <runtime>  (414) 
36.651862

>  <generation_date>  (414) 
nan

$$$$
mArh-5cb5_A_0_A_γ-5CB3_0_A_β
     RDKit          3D

 16 16  0  0  0  0  0  0  0  0999 V2000
   -1.6970   13.0470   -4.1900 O   0  0  0  0  0  0  0  0  0  0  0  0
   -0.4950   13.6920   -3.9210 C   0  0  2  0  0  0  0  0  0  0  0  0
   -0.6010   14.7010   -2.7780 C   0  0  0  0  0  0  0  0  0  0  0  0
   -0.0200   14.5250   -5.0810 C   0  0  2  0  0  0  0  0  0  0  0  0
    1.3660   14.4180   -5.0940 O   0  0  0  0  0  0  0  0  0  0  0  0
   -0.0450   15.8750   -3.3110 O   0  0  0  0  0  0  0  0  0  0  0  0
   -0.4910   15.8460   -4.6160 C   0  0  1  0  0  0  0  0  0  0  0  0
   -0.1590   17.1190   -5.4070 C   0  0  0  0  0  0  0  0  0  0  0  0
   -1.6090   18.0500   -5.7020 P   0  0  0  0  0  0  0  0  0  0  0  0
   -1.1450   19.3250   -6.4090 O   0  0  0  0  0  0  0  0  0  0  0  0
   -2.6070   17.7770   -7.0380 O   0  0  0  0  0  0  0  0  0  0  0  0
   -2.1570   19.0340   -4.5840 O   0  0  0  0  0  0  0  0  0  0  0  0
   -0.1920   19.5810   -7.6540 P   0  0  0  0  0  0  0  0  0  0  0  0
   -1.3090   20.3020   -8.4170 O   0  0  0  0  0  0  0  0  0  0  0  0
    0.7060   20.9900   -7.7560 O   0  0  0  0  0  0  0  0  0  0  0  0
    0.0200   18.4440   -8.8130 O   0  0  0  0  0  0  0  0  0  0  0  0
  2  1  1  6
  2  3  1  0
  2  4  1  0
  4  5  1  1
  3  6  1  0
  4  7  1  0
  6  7  1  0
  7  8  1  6
  8  9  1  0
  9 10  1  0
  9 11  1  0
  9 12  1  0
 10 13  1  0
 13 14  1  0
 13 15  1  0
 13 16  1  0
M  CHG  2  11  -1  15  -1
M  END
>  <%Rank>  (415) 
31.603053

>  <N_hits>  (415) 
2

>  <submitter_name>  (415) 
nan

>  <original SMILES>  (415) 
nan

>  <∆G_unbound>  (415) 
0.683631

>  <∆G_bound>  (415) 
-7.234349

>  <regarded>  (415) 
mArh-5cb5_A_0_A_γ,5CB3_0_A_β

>  <ref_pdb>  (415) 
nan

>  <smiles>  (415) 
[O-][PH](O)(O)O[PH]([O-])(O)CC1OCC(O)C1O

>  <submitter_email>  (415) 
nan

>  <disregarded>  (415) 


>  <LE>  (415) 
-0.494874

>  <submitter_institution>  (415) 
nan

>  <ref_mols>  (415) 
mArh-5cb5_A_0_A,5CB3_0_A

>  <N_constrained_atoms>  (415) 
16.0

>  <ref_url>  (415) 
nan

>  <method>  (415) 
nan

>  <comRMSD>  (415) 
0.689013

>  <N_unconstrained_atoms>  (415) 
0.0

>  <∆∆G>  (415) 
-7.91798

>  <runtime>  (415) 
36.398076

>  <generation_date>  (415) 
nan

$$$$
5L9K_0_A_δ-5CB5_0_L_β
     RDKit          3D

 21 22  0  0  0  0  0  0  0  0999 V2000
   -4.2510   15.7790    1.9560 N   0  0  0  0  0  0  0  0  0  0  0  0
   -3.1420   15.5670    1.0580 C   0  0  2  0  0  0  0  0  0  0  0  0
   -3.4850   14.7080   -0.1000 C   0  0  2  0  0  0  0  0  0  0  0  0
   -2.0720   14.9330    1.7780 N   0  0  0  0  0  0  0  0  0  0  0  0
   -2.2220   14.4560   -0.9350 C   0  0  1  0  0  0  0  0  0  0  0  0
   -4.4030   15.3340   -1.0230 N   0  0  0  0  0  0  0  0  0  0  0  0
   -0.8810   14.7640    0.9890 C   0  0  0  0  0  0  0  0  0  0  0  0
   -2.5200   14.8220   -2.2630 N   0  0  0  0  0  0  0  0  0  0  0  0
   -3.9390   14.8240   -2.3030 C   0  0  0  0  0  0  0  0  0  0  0  0
   -1.1650   15.1890   -0.3540 N   0  0  0  0  0  0  0  0  0  0  0  0
   -1.9510   16.0290   -2.6790 C   0  0  0  0  0  0  0  0  0  0  0  0
   -2.0070   16.4670   -4.1470 C   0  0  0  0  0  0  0  0  0  0  0  0
   -1.7740   17.8250   -4.2270 O   0  0  0  0  0  0  0  0  0  0  0  0
   -1.7740   18.3600   -5.8110 P   0  0  0  0  0  0  0  0  0  0  0  0
   -0.9680   19.5670   -6.3880 O   0  0  0  0  0  0  0  0  0  0  0  0
   -0.8490   17.1680   -6.0380 O   0  0  0  0  0  0  0  0  0  0  0  0
   -2.8290   17.6020   -6.8830 O   0  0  0  0  0  0  0  0  0  0  0  0
   -0.1940   19.3090   -7.6280 P   0  0  0  0  0  0  0  0  0  0  0  0
   -1.3710   19.8670   -8.6220 O   0  0  0  0  0  0  0  0  0  0  0  0
    1.0130   20.4180   -7.3520 O   0  0  0  0  0  0  0  0  0  0  0  0
    0.4360   18.8220   -8.8750 O   0  0  0  0  0  0  0  0  0  0  0  0
  2  1  1  1
  2  3  1  0
  2  4  1  0
  3  5  1  0
  3  6  1  6
  4  7  1  0
  5  8  1  0
  6  9  1  0
  8  9  1  0
  5 10  1  1
  7 10  1  0
  8 11  1  0
 11 12  1  0
 12 13  1  0
 13 14  1  0
 14 15  1  0
 14 16  1  0
 14 17  1  0
 15 18  1  0
 18 19  1  0
 18 20  1  0
 18 21  1  0
M  CHG  2  17  -1  20  -1
M  END
>  <%Rank>  (416) 
31.679389

>  <N_hits>  (416) 
2

>  <submitter_name>  (416) 
nan

>  <original SMILES>  (416) 
nan

>  <∆G_unbound>  (416) 
3.8975

>  <∆G_bound>  (416) 
-5.731624

>  <regarded>  (416) 
5L9K_0_A_δ,5CB5_0_L_β

>  <ref_pdb>  (416) 
nan

>  <smiles>  (416) 
NC1NCNC2C1NCN2CCO[PH]([O-])(O)O[PH]([O-])(O)O

>  <submitter_email>  (416) 
nan

>  <disregarded>  (416) 


>  <LE>  (416) 
-0.45853

>  <submitter_institution>  (416) 
nan

>  <ref_mols>  (416) 
5L9K_0_A,5CB5_0_L

>  <N_constrained_atoms>  (416) 
19.0

>  <ref_url>  (416) 
nan

>  <method>  (416) 
nan

>  <comRMSD>  (416) 
0.682788

>  <N_unconstrained_atoms>  (416) 
2.0

>  <∆∆G>  (416) 
-9.629124

>  <runtime>  (416) 
32.255444

>  <generation_date>  (416) 
nan

$$$$
5CMS_0_A_β-5CMS_0_K_δ
     RDKit          3D

 21 22  0  0  0  0  0  0  0  0999 V2000
   -1.3610   20.5420   -9.0010 O   0  0  0  0  0  0  0  0  0  0  0  0
   -0.8200   19.7440   -7.8300 P   0  0  0  0  0  0  0  0  0  0  0  0
   -0.5300   18.8100   -6.6720 O   0  0  0  0  0  0  0  0  0  0  0  0
    0.2340   20.8980   -7.4470 O   0  0  0  0  0  0  0  0  0  0  0  0
   -0.2070   18.5670   -8.8300 O   0  0  0  0  0  0  0  0  0  0  0  0
   -1.4740   18.0140   -5.7640 P   0  0  0  0  0  0  0  0  0  0  0  0
   -2.2630   17.1340   -4.8010 O   0  0  0  0  0  0  0  0  0  0  0  0
   -2.4110   17.4220   -6.9640 O   0  0  0  0  0  0  0  0  0  0  0  0
   -2.0950   19.3290   -5.0550 O   0  0  0  0  0  0  0  0  0  0  0  0
   -1.6420   15.9590   -4.3670 C   0  0  0  0  0  0  0  0  0  0  0  0
   -1.5260   15.9880   -2.8890 C   0  0  0  0  0  0  0  0  0  0  0  0
   -1.9310   14.7340   -2.2710 N   0  0  0  0  0  0  0  0  0  0  0  0
   -1.7010   14.9430   -0.8800 C   0  0  1  0  0  0  0  0  0  0  0  0
   -3.3720   14.6870   -2.4530 C   0  0  0  0  0  0  0  0  0  0  0  0
   -2.9680   14.3160   -0.2950 C   0  0  2  0  0  0  0  0  0  0  0  0
   -3.9400   14.9370   -1.1170 N   0  0  0  0  0  0  0  0  0  0  0  0
   -0.5860   14.2180   -0.3180 N   0  0  0  0  0  0  0  0  0  0  0  0
   -0.5880   14.5370    1.1000 C   0  0  0  0  0  0  0  0  0  0  0  0
   -3.0040   14.6700    1.1710 C   0  0  2  0  0  0  0  0  0  0  0  0
   -4.1100   15.6130    1.3730 N   0  0  0  0  0  0  0  0  0  0  0  0
   -1.7380   15.3090    1.4590 N   0  0  0  0  0  0  0  0  0  0  0  0
  1  2  1  0
  2  3  1  0
  2  4  1  0
  2  5  1  0
  3  6  1  0
  6  7  1  0
  6  8  1  0
  6  9  1  0
  7 10  1  0
 10 11  1  0
 11 12  1  0
 12 13  1  0
 12 14  1  0
 13 15  1  0
 14 16  1  0
 15 16  1  6
 13 17  1  1
 17 18  1  0
 15 19  1  0
 19 20  1  6
 18 21  1  0
 19 21  1  0
M  CHG  2   4  -1   8  -1
M  END
>  <%Rank>  (417) 
31.755725

>  <N_hits>  (417) 
2

>  <submitter_name>  (417) 
nan

>  <original SMILES>  (417) 
nan

>  <∆G_unbound>  (417) 
0.88229

>  <∆G_bound>  (417) 
-7.106276

>  <regarded>  (417) 
5CMS_0_A_β,5CMS_0_K_δ

>  <ref_pdb>  (417) 
nan

>  <smiles>  (417) 
NC1NCNC2C1NCN2CCO[PH]([O-])(O)O[PH]([O-])(O)O

>  <submitter_email>  (417) 
nan

>  <disregarded>  (417) 


>  <LE>  (417) 
-0.380408

>  <submitter_institution>  (417) 
nan

>  <ref_mols>  (417) 
5CMS_0_A,5CMS_0_K

>  <N_constrained_atoms>  (417) 
19.0

>  <ref_url>  (417) 
nan

>  <method>  (417) 
nan

>  <comRMSD>  (417) 
0.644582

>  <N_unconstrained_atoms>  (417) 
2.0

>  <∆∆G>  (417) 
-7.988566

>  <runtime>  (417) 
30.683731

>  <generation_date>  (417) 
nan

$$$$
mArh-4iqy_B_0_B_γ-mArh-x1018_0_A_α
     RDKit          3D

 19 21  0  0  0  0  0  0  0  0999 V2000
   -0.8050   12.9230   -3.1660 O   0  0  0  0  0  0  0  0  0  0  0  0
   -1.1880   13.8190   -4.2090 C   0  0  1  0  0  0  0  0  0  0  0  0
   -1.6460   15.2330   -3.8110 C   0  0  1  0  0  0  0  0  0  0  0  0
    0.0830   14.1890   -4.9910 C   0  0  2  0  0  0  0  0  0  0  0  0
    1.2470   13.5720   -4.4510 O   0  0  0  0  0  0  0  0  0  0  0  0
   -2.7060   15.5610   -2.7890 C   0  0  0  0  0  0  0  0  0  0  0  0
   -0.4700   15.9790   -3.6170 O   0  0  0  0  0  0  0  0  0  0  0  0
    0.0360   15.7240   -4.9140 C   0  0  1  0  0  0  0  0  0  0  0  0
    1.2760   16.4930   -5.0960 C   0  0  0  0  0  0  0  0  0  0  0  0
   -3.3610   14.5450   -2.0380 N   0  0  0  0  0  0  0  0  0  0  0  0
   -3.0240   14.6490   -0.6470 N   0  0  0  0  0  0  0  0  0  0  0  0
   -4.7790   14.5750   -2.2330 N   0  0  0  0  0  0  0  0  0  0  0  0
   -5.2410   14.7490   -0.9480 N   0  0  0  0  0  0  0  0  0  0  0  0
   -4.2630   14.1840   -0.0550 C   0  0  2  0  0  0  0  0  0  0  0  0
   -6.5700   14.5990   -0.7120 N   0  0  0  0  0  0  0  0  0  0  0  0
   -4.5660   14.6550    1.2900 C   0  0  0  0  0  0  0  0  0  0  0  0
   -6.8550   14.6590    0.5540 C   0  0  0  0  0  0  0  0  0  0  0  0
   -5.8400   14.8830    1.6240 C   0  0  0  0  0  0  0  0  0  0  0  0
   -8.5190   14.4810    0.9820 Cl  0  0  0  0  0  0  0  0  0  0  0  0
  2  1  1  1
  2  3  1  0
  2  4  1  0
  4  5  1  1
  3  6  1  1
  3  7  1  0
  4  8  1  0
  7  8  1  0
  8  9  1  1
  6 10  1  0
 10 11  1  0
 10 12  1  0
 12 13  1  0
 11 14  1  0
 13 14  1  0
 13 15  1  0
 14 16  1  1
 15 17  2  0
 16 18  2  0
 17 18  1  0
 17 19  1  0
M  END
>  <%Rank>  (418) 
31.832061

>  <N_hits>  (418) 
2

>  <submitter_name>  (418) 
nan

>  <original SMILES>  (418) 
nan

>  <∆G_unbound>  (418) 
2.312912

>  <∆G_bound>  (418) 
-3.011835

>  <regarded>  (418) 
mArh-4iqy_B_0_B_γ,mArh-x1018_0_A_α

>  <ref_pdb>  (418) 
nan

>  <smiles>  (418) 
CC1OC(CN2NC3C=CC(Cl)=NN3N2)C(O)C1O

>  <submitter_email>  (418) 
nan

>  <disregarded>  (418) 


>  <LE>  (418) 
-0.28025

>  <submitter_institution>  (418) 
nan

>  <ref_mols>  (418) 
mArh-4iqy_B_0_B,mArh-x1018_0_A

>  <N_constrained_atoms>  (418) 
18.0

>  <ref_url>  (418) 
nan

>  <method>  (418) 
nan

>  <comRMSD>  (418) 
0.599478

>  <N_unconstrained_atoms>  (418) 
1.0

>  <∆∆G>  (418) 
-5.324746

>  <runtime>  (418) 
23.228851

>  <generation_date>  (418) 
nan

$$$$
mArh-5cb5_N_0_N_α-4IQY_0_A_γ
     RDKit          3D

 22 23  0  0  0  0  0  0  0  0999 V2000
   -1.9200   21.4710   -8.6390 C   0  0  0  0  0  0  0  0  0  0  0  0
   -3.2460   22.0160   -8.1730 C   0  0  2  0  0  0  0  0  0  0  0  0
   -4.3470   21.2940   -8.7100 O   0  0  0  0  0  0  0  0  0  0  0  0
   -3.6890   23.4200   -8.4780 C   0  0  1  0  0  0  0  0  0  0  0  0
   -3.9900   23.6500   -9.8660 O   0  0  0  0  0  0  0  0  0  0  0  0
   -5.3030   21.7660   -7.7870 C   0  0  2  0  0  0  0  0  0  0  0  0
   -5.0200   23.3040   -7.7450 C   0  0  2  0  0  0  0  0  0  0  0  0
   -4.9740   21.1440   -6.5300 O   0  0  0  0  0  0  0  0  0  0  0  0
   -5.9810   24.1010   -8.4260 O   0  0  0  0  0  0  0  0  0  0  0  0
   -3.8060   20.2900   -6.7110 C   0  0  0  0  0  0  0  0  0  0  0  0
   -2.6470   20.3580   -5.6890 C   0  0  0  0  0  0  0  0  0  0  0  0
   -1.9560   18.9800   -5.4740 C   0  0  0  0  0  0  0  0  0  0  0  0
   -0.5920   18.7910   -6.1480 C   0  0  0  0  0  0  0  0  0  0  0  0
    0.4250   18.0970   -5.2090 C   0  0  0  0  0  0  0  0  0  0  0  0
    0.4650   16.5690   -5.3720 C   0  0  0  0  0  0  0  0  0  0  0  0
    0.8660   15.7650   -4.1240 C   0  0  1  0  0  0  0  0  0  0  0  0
   -0.1190   15.9780   -3.0890 O   0  0  0  0  0  0  0  0  0  0  0  0
    0.8890   14.2330   -4.2350 C   0  0  2  0  0  0  0  0  0  0  0  0
    1.4560   13.6390   -5.3780 O   0  0  0  0  0  0  0  0  0  0  0  0
   -0.8680   14.7670   -2.8840 C   0  0  0  0  0  0  0  0  0  0  0  0
   -0.5770   13.9100   -4.0930 C   0  0  2  0  0  0  0  0  0  0  0  0
   -0.7650   12.5170   -3.9080 O   0  0  0  0  0  0  0  0  0  0  0  0
  2  1  1  6
  2  3  1  0
  2  4  1  0
  4  5  1  6
  3  6  1  0
  4  7  1  0
  6  7  1  0
  6  8  1  1
  7  9  1  6
  8 10  1  0
 10 11  1  0
 11 12  1  0
 12 13  1  0
 13 14  1  0
 14 15  1  0
 16 15  1  6
 16 17  1  0
 16 18  1  0
 18 19  1  6
 17 20  1  0
 18 21  1  0
 20 21  1  0
 21 22  1  1
M  END
>  <%Rank>  (419) 
31.908397

>  <N_hits>  (419) 
2

>  <submitter_name>  (419) 
nan

>  <original SMILES>  (419) 
nan

>  <∆G_unbound>  (419) 
0.187336

>  <∆G_bound>  (419) 
-8.534078

>  <regarded>  (419) 
mArh-5cb5_N_0_N_α,4IQY_0_A_γ

>  <ref_pdb>  (419) 
nan

>  <smiles>  (419) 
CC1OC(OCCCCCCC2OCC(O)C2O)C(O)C1O

>  <submitter_email>  (419) 
nan

>  <disregarded>  (419) 


>  <LE>  (419) 
-0.396428

>  <submitter_institution>  (419) 
nan

>  <ref_mols>  (419) 
mArh-5cb5_N_0_N,4IQY_0_A

>  <N_constrained_atoms>  (419) 
17.0

>  <ref_url>  (419) 
nan

>  <method>  (419) 
nan

>  <comRMSD>  (419) 
0.516949

>  <N_unconstrained_atoms>  (419) 
5.0

>  <∆∆G>  (419) 
-8.721414

>  <runtime>  (419) 
40.563664

>  <generation_date>  (419) 
nan

$$$$
5CB5_0_H_β-mArh-x0662_0_A_β
     RDKit          3D

 22 22  0  0  0  0  0  0  0  0999 V2000
   -1.4430   21.1680   -7.8400 O   0  0  0  0  0  0  0  0  0  0  0  0
   -0.6530   19.8370   -7.9140 P   0  0  0  0  0  0  0  0  0  0  0  0
   -0.7860   19.2620   -6.4820 O   0  0  0  0  0  0  0  0  0  0  0  0
    0.6630   20.8880   -8.0890 O   0  0  0  0  0  0  0  0  0  0  0  0
    0.2170   18.8150   -8.6640 O   0  0  0  0  0  0  0  0  0  0  0  0
   -1.7130   18.1010   -5.9630 P   0  0  0  0  0  0  0  0  0  0  0  0
   -0.6700   16.9500   -6.0290 O   0  0  0  0  0  0  0  0  0  0  0  0
   -2.6750   17.2480   -6.9850 O   0  0  0  0  0  0  0  0  0  0  0  0
   -2.0000   17.8250   -4.4150 O   0  0  0  0  0  0  0  0  0  0  0  0
   -0.1270   16.2540   -4.9130 C   0  0  0  0  0  0  0  0  0  0  0  0
   -0.4580   14.7470   -4.9770 C   0  0  0  0  0  0  0  0  0  0  0  0
    0.5890   13.8850   -5.7460 C   0  0  0  0  0  0  0  0  0  0  0  0
    0.7940   12.5420   -5.3100 O   0  0  0  0  0  0  0  0  0  0  0  0
   -0.1050   11.5220   -5.6510 C   0  0  0  0  0  0  0  0  0  0  0  0
   -0.9840   11.2660   -4.8040 O   0  0  0  0  0  0  0  0  0  0  0  0
   -0.0880   10.7480   -6.9150 C   0  0  0  0  0  0  0  0  0  0  0  0
    0.7630   10.9880   -7.9650 C   0  0  0  0  0  0  0  0  0  0  0  0
   -0.9850    9.7140   -7.0740 C   0  0  0  0  0  0  0  0  0  0  0  0
    0.7430   10.2530   -9.1550 C   0  0  0  0  0  0  0  0  0  0  0  0
   -1.0370    8.9530   -8.2280 C   0  0  0  0  0  0  0  0  0  0  0  0
    1.6210   10.5380  -10.2210 N   0  0  0  0  0  0  0  0  0  0  0  0
   -0.1820    9.2240   -9.2580 C   0  0  0  0  0  0  0  0  0  0  0  0
  1  2  1  0
  2  3  1  0
  2  4  1  0
  2  5  1  0
  3  6  1  0
  6  7  1  0
  6  8  1  0
  6  9  1  0
  7 10  1  0
 10 11  1  0
 11 12  1  0
 12 13  1  0
 13 14  1  0
 14 15  2  0
 14 16  1  0
 16 17  2  0
 16 18  1  0
 17 19  1  0
 18 20  2  0
 19 21  1  0
 19 22  2  0
 20 22  1  0
M  CHG  2   4  -1   8  -1
M  END
>  <%Rank>  (420) 
31.984733

>  <N_hits>  (420) 
2

>  <submitter_name>  (420) 
nan

>  <original SMILES>  (420) 
nan

>  <∆G_unbound>  (420) 
0.835905

>  <∆G_bound>  (420) 
-7.736476

>  <regarded>  (420) 
5CB5_0_H_β,mArh-x0662_0_A_β

>  <ref_pdb>  (420) 
nan

>  <smiles>  (420) 
Nc1cccc(C(=O)OCCCO[PH]([O-])(O)O[PH]([O-])(O)O)c1

>  <submitter_email>  (420) 
nan

>  <disregarded>  (420) 


>  <LE>  (420) 
-0.389654

>  <submitter_institution>  (420) 
nan

>  <ref_mols>  (420) 
5CB5_0_H,mArh-x0662_0_A

>  <N_constrained_atoms>  (420) 
19.0

>  <ref_url>  (420) 
nan

>  <method>  (420) 
nan

>  <comRMSD>  (420) 
0.623681

>  <N_unconstrained_atoms>  (420) 
3.0

>  <∆∆G>  (420) 
-8.572381

>  <runtime>  (420) 
49.343421

>  <generation_date>  (420) 
nan

$$$$
mArh-5l9k_B_0_B_γ-5CB5_0_J_β
     RDKit          3D

 16 16  0  0  0  0  0  0  0  0999 V2000
   -2.7390   13.0810   -4.0090 O   0  0  0  0  0  0  0  0  0  0  0  0
   -1.4650   13.5940   -3.7990 C   0  0  2  0  0  0  0  0  0  0  0  0
   -1.4250   14.6390   -2.6920 C   0  0  0  0  0  0  0  0  0  0  0  0
   -0.9320   14.3420   -5.0030 C   0  0  2  0  0  0  0  0  0  0  0  0
    0.4040   13.9540   -5.1210 O   0  0  0  0  0  0  0  0  0  0  0  0
   -0.6190   15.6450   -3.2360 O   0  0  0  0  0  0  0  0  0  0  0  0
   -1.0960   15.7380   -4.5250 C   0  0  1  0  0  0  0  0  0  0  0  0
   -0.4500   16.8960   -5.3040 C   0  0  0  0  0  0  0  0  0  0  0  0
   -1.5610   18.1620   -5.8110 P   0  0  0  0  0  0  0  0  0  0  0  0
   -0.5660   19.2450   -6.2500 O   0  0  0  0  0  0  0  0  0  0  0  0
   -2.1660   18.2380   -7.3830 O   0  0  0  0  0  0  0  0  0  0  0  0
   -2.1780   19.2160   -4.7850 O   0  0  0  0  0  0  0  0  0  0  0  0
   -0.0490   19.6390   -7.7090 P   0  0  0  0  0  0  0  0  0  0  0  0
   -1.3830   20.2190   -8.2080 O   0  0  0  0  0  0  0  0  0  0  0  0
    0.6360   21.1450   -8.0070 O   0  0  0  0  0  0  0  0  0  0  0  0
    0.0330   18.4820   -8.8660 O   0  0  0  0  0  0  0  0  0  0  0  0
  2  1  1  6
  2  3  1  0
  2  4  1  0
  4  5  1  1
  3  6  1  0
  4  7  1  0
  6  7  1  0
  7  8  1  6
  8  9  1  0
  9 10  1  0
  9 11  1  0
  9 12  1  0
 10 13  1  0
 13 14  1  0
 13 15  1  0
 13 16  1  0
M  CHG  2  11  -1  15  -1
M  END
>  <%Rank>  (421) 
32.061069

>  <N_hits>  (421) 
2

>  <submitter_name>  (421) 
nan

>  <original SMILES>  (421) 
nan

>  <∆G_unbound>  (421) 
0.683631

>  <∆G_bound>  (421) 
-6.740813

>  <regarded>  (421) 
mArh-5l9k_B_0_B_γ,5CB5_0_J_β

>  <ref_pdb>  (421) 
nan

>  <smiles>  (421) 
[O-][PH](O)(O)O[PH]([O-])(O)CC1OCC(O)C1O

>  <submitter_email>  (421) 
nan

>  <disregarded>  (421) 


>  <LE>  (421) 
-0.464028

>  <submitter_institution>  (421) 
nan

>  <ref_mols>  (421) 
mArh-5l9k_B_0_B,5CB5_0_J

>  <N_constrained_atoms>  (421) 
16.0

>  <ref_url>  (421) 
nan

>  <method>  (421) 
nan

>  <comRMSD>  (421) 
0.675738

>  <N_unconstrained_atoms>  (421) 
0.0

>  <∆∆G>  (421) 
-7.424444

>  <runtime>  (421) 
31.08219

>  <generation_date>  (421) 
nan

$$$$
5CB5_0_D_α-mArh-5cms_C_2_C_γ
     RDKit          3D

 22 23  0  0  0  0  0  0  0  0999 V2000
   -1.9200   21.9100   -8.3690 C   0  0  0  0  0  0  0  0  0  0  0  0
   -3.3130   22.2140   -7.8750 C   0  0  2  0  0  0  0  0  0  0  0  0
   -4.2400   21.2310   -8.3280 O   0  0  0  0  0  0  0  0  0  0  0  0
   -3.9930   23.4940   -8.3060 C   0  0  1  0  0  0  0  0  0  0  0  0
   -4.1380   23.5970   -9.7270 O   0  0  0  0  0  0  0  0  0  0  0  0
   -5.4290   21.6640   -7.6750 C   0  0  2  0  0  0  0  0  0  0  0  0
   -5.3790   23.2230   -7.7360 C   0  0  1  0  0  0  0  0  0  0  0  0
   -5.4090   21.2470   -6.3080 O   0  0  0  0  0  0  0  0  0  0  0  0
   -5.5780   23.9070   -6.4900 O   0  0  0  0  0  0  0  0  0  0  0  0
   -4.0760   21.1430   -5.7720 C   0  0  0  0  0  0  0  0  0  0  0  0
   -3.1430   20.1220   -6.4690 C   0  0  0  0  0  0  0  0  0  0  0  0
   -1.9650   19.7470   -5.5610 C   0  0  0  0  0  0  0  0  0  0  0  0
   -1.5860   18.2560   -5.5250 C   0  0  0  0  0  0  0  0  0  0  0  0
   -0.1720   18.0120   -4.9390 C   0  0  0  0  0  0  0  0  0  0  0  0
    0.4830   16.7190   -5.4190 C   0  0  0  0  0  0  0  0  0  0  0  0
    0.5460   15.5120   -4.4620 C   0  0  1  0  0  0  0  0  0  0  0  0
   -0.3420   15.7250   -3.3480 O   0  0  0  0  0  0  0  0  0  0  0  0
    0.1200   14.1580   -5.0770 C   0  0  1  0  0  0  0  0  0  0  0  0
    1.1410   13.1930   -5.2350 O   0  0  0  0  0  0  0  0  0  0  0  0
   -0.7880   14.4450   -2.9040 C   0  0  0  0  0  0  0  0  0  0  0  0
   -0.9490   13.6080   -4.1550 C   0  0  2  0  0  0  0  0  0  0  0  0
   -0.7060   12.2250   -3.9630 O   0  0  0  0  0  0  0  0  0  0  0  0
  2  1  1  6
  2  3  1  0
  2  4  1  0
  4  5  1  6
  3  6  1  0
  4  7  1  0
  6  7  1  0
  6  8  1  1
  7  9  1  1
  8 10  1  0
 10 11  1  0
 11 12  1  0
 12 13  1  0
 13 14  1  0
 14 15  1  0
 16 15  1  6
 16 17  1  0
 16 18  1  0
 18 19  1  1
 17 20  1  0
 18 21  1  0
 20 21  1  0
 21 22  1  1
M  END
>  <%Rank>  (422) 
32.137405

>  <N_hits>  (422) 
2

>  <submitter_name>  (422) 
nan

>  <original SMILES>  (422) 
nan

>  <∆G_unbound>  (422) 
0.187336

>  <∆G_bound>  (422) 
-10.843853

>  <regarded>  (422) 
5CB5_0_D_α,mArh-5cms_C_2_C_γ

>  <ref_pdb>  (422) 
nan

>  <smiles>  (422) 
CC1OC(OCCCCCCC2OCC(O)C2O)C(O)C1O

>  <submitter_email>  (422) 
nan

>  <disregarded>  (422) 


>  <LE>  (422) 
-0.501418

>  <submitter_institution>  (422) 
nan

>  <ref_mols>  (422) 
5CB5_0_D,mArh-5cms_C_2_C

>  <N_constrained_atoms>  (422) 
17.0

>  <ref_url>  (422) 
nan

>  <method>  (422) 
nan

>  <comRMSD>  (422) 
0.570845

>  <N_unconstrained_atoms>  (422) 
5.0

>  <∆∆G>  (422) 
-11.031189

>  <runtime>  (422) 
41.160544

>  <generation_date>  (422) 
nan

$$$$
5CB5_0_Q_δ-mArh-EU0860_0_A_α
     RDKit          3D

 23 25  0  0  0  0  0  0  0  0999 V2000
   -3.7520   15.3930    1.6020 N   0  0  0  0  0  0  0  0  0  0  0  0
   -2.4490   15.5050    0.9580 C   0  0  2  0  0  0  0  0  0  0  0  0
   -2.5240   15.5330   -0.5630 C   0  0  1  0  0  0  0  0  0  0  0  0
   -1.5800   14.4810    1.5040 N   0  0  0  0  0  0  0  0  0  0  0  0
   -1.4460   14.6130   -1.0340 C   0  0  1  0  0  0  0  0  0  0  0  0
   -3.6640   15.0260   -1.3190 N   0  0  0  0  0  0  0  0  0  0  0  0
   -0.2080   14.5060    0.9770 C   0  0  0  0  0  0  0  0  0  0  0  0
   -1.5780   14.6260   -2.4920 N   0  0  0  0  0  0  0  0  0  0  0  0
   -3.0350   14.9130   -2.6520 C   0  0  0  0  0  0  0  0  0  0  0  0
   -0.1740   14.8610   -0.4290 N   0  0  0  0  0  0  0  0  0  0  0  0
   -1.2480   13.3490   -3.1650 C   0  0  0  0  0  0  0  0  0  0  0  0
   -1.2750   12.1650   -2.1760 C   0  0  0  0  0  0  0  0  0  0  0  0
   -0.8880   10.8120   -2.7840 C   0  0  0  0  0  0  0  0  0  0  0  0
   -1.5500   10.4650   -4.1250 C   0  0  0  0  0  0  0  0  0  0  0  0
   -0.6490    9.7530   -5.1400 C   0  0  0  0  0  0  0  0  0  0  0  0
   -1.2690    9.2610   -6.4530 C   0  0  0  0  0  0  0  0  0  0  0  0
   -0.4290    9.5980   -7.5910 N   0  0  0  0  0  0  0  0  0  0  0  0
    0.3060    8.7440   -8.3760 C   0  0  0  0  0  0  0  0  0  0  0  0
   -0.3130   10.8810   -7.9620 N   0  0  0  0  0  0  0  0  0  0  0  0
    0.9350    9.5410   -9.3180 C   0  0  0  0  0  0  0  0  0  0  0  0
    0.5120   10.8380   -9.0070 C   0  0  0  0  0  0  0  0  0  0  0  0
    1.8240    9.1430  -10.3820 C   0  0  0  0  0  0  0  0  0  0  0  0
    2.3170    8.0260  -10.4790 O   0  0  0  0  0  0  0  0  0  0  0  0
  2  1  1  1
  2  3  1  0
  2  4  1  0
  3  5  1  0
  3  6  1  1
  4  7  1  0
  5  8  1  0
  6  9  1  0
  8  9  1  0
  5 10  1  6
  7 10  1  0
  8 11  1  0
 11 12  1  0
 12 13  1  0
 13 14  1  0
 14 15  1  0
 15 16  1  0
 16 17  1  0
 17 18  1  0
 17 19  1  0
 18 20  2  0
 19 21  2  0
 20 21  1  0
 20 22  1  0
 22 23  2  0
M  END
>  <%Rank>  (423) 
32.21374

>  <N_hits>  (423) 
2

>  <submitter_name>  (423) 
nan

>  <original SMILES>  (423) 
nan

>  <∆G_unbound>  (423) 
0.408365

>  <∆G_bound>  (423) 
-5.014382

>  <regarded>  (423) 
5CB5_0_Q_δ,mArh-EU0860_0_A_α

>  <ref_pdb>  (423) 
nan

>  <smiles>  (423) 
NC1NCNC2C1NCN2CCCCCCn1cc(C=O)cn1

>  <submitter_email>  (423) 
nan

>  <disregarded>  (423) 


>  <LE>  (423) 
-0.235772

>  <submitter_institution>  (423) 
nan

>  <ref_mols>  (423) 
5CB5_0_Q,mArh-EU0860_0_A

>  <N_constrained_atoms>  (423) 
18.0

>  <ref_url>  (423) 
nan

>  <method>  (423) 
nan

>  <comRMSD>  (423) 
0.467799

>  <N_unconstrained_atoms>  (423) 
5.0

>  <∆∆G>  (423) 
-5.422747

>  <runtime>  (423) 
35.31905

>  <generation_date>  (423) 
nan

$$$$
mArh-5cb3_0_A_γ-mArh-5cb5_M_1_M_β
     RDKit          3D

 16 16  0  0  0  0  0  0  0  0999 V2000
   -1.7640   12.9950   -4.2140 O   0  0  0  0  0  0  0  0  0  0  0  0
   -0.5220   13.6180   -3.9300 C   0  0  2  0  0  0  0  0  0  0  0  0
   -0.5790   14.5950   -2.7490 C   0  0  0  0  0  0  0  0  0  0  0  0
   -0.0290   14.4910   -5.0730 C   0  0  2  0  0  0  0  0  0  0  0  0
    1.4010   14.4010   -5.0060 O   0  0  0  0  0  0  0  0  0  0  0  0
   -0.1870   15.8870   -3.2570 O   0  0  0  0  0  0  0  0  0  0  0  0
   -0.5960   15.8500   -4.6310 C   0  0  1  0  0  0  0  0  0  0  0  0
   -0.1430   17.1330   -5.3340 C   0  0  0  0  0  0  0  0  0  0  0  0
   -1.4630   18.2590   -5.9200 P   0  0  1  0  0  0  0  0  0  0  0  0
   -0.7760   19.5070   -6.5800 O   0  0  0  0  0  0  0  0  0  0  0  0
   -2.5160   17.6200   -6.7810 O   0  0  0  0  0  0  0  0  0  0  0  0
   -2.0880   19.0280   -4.6730 O   0  0  0  0  0  0  0  0  0  0  0  0
   -0.2920   19.8100   -8.0150 P   0  0  0  0  0  0  0  0  0  0  0  0
   -1.4620   20.6950   -8.6330 O   0  0  0  0  0  0  0  0  0  0  0  0
    0.0880   18.6620   -8.8600 O   0  0  0  0  0  0  0  0  0  0  0  0
    0.8340   20.9250   -7.8320 O   0  0  0  0  0  0  0  0  0  0  0  0
  2  1  1  6
  2  3  1  0
  2  4  1  0
  4  5  1  1
  3  6  1  0
  4  7  1  0
  6  7  1  0
  7  8  1  6
  8  9  1  0
  9 10  1  0
  9 11  2  0
  9 12  1  1
 10 13  1  0
 13 14  1  0
 13 15  2  0
 13 16  1  0
M  END
>  <%Rank>  (424) 
32.290076

>  <N_hits>  (424) 
2

>  <submitter_name>  (424) 
nan

>  <original SMILES>  (424) 
nan

>  <∆G_unbound>  (424) 
1.057928

>  <∆G_bound>  (424) 
-10.057473

>  <regarded>  (424) 
mArh-5cb3_0_A_γ,mArh-5cb5_M_1_M_β

>  <ref_pdb>  (424) 
nan

>  <smiles>  (424) 
O=P(O)(O)OP(=O)(O)CC1OCC(O)C1O

>  <submitter_email>  (424) 
nan

>  <disregarded>  (424) 


>  <LE>  (424) 
-0.694713

>  <submitter_institution>  (424) 
nan

>  <ref_mols>  (424) 
mArh-5cb3_0_A,mArh-5cb5_M_1_M

>  <N_constrained_atoms>  (424) 
16.0

>  <ref_url>  (424) 
nan

>  <method>  (424) 
nan

>  <comRMSD>  (424) 
0.792367

>  <N_unconstrained_atoms>  (424) 
0.0

>  <∆∆G>  (424) 
-11.115401

>  <runtime>  (424) 
32.97273

>  <generation_date>  (424) 
nan

$$$$
4IQY_0_A_δ-mArh-6woj_B_0_B_β
     RDKit          3D

 21 22  0  0  0  0  0  0  0  0999 V2000
   -4.0680   14.4510    1.2480 N   0  0  0  0  0  0  0  0  0  0  0  0
   -2.9380   15.3230    1.1330 C   0  0  2  0  0  0  0  0  0  0  0  0
   -2.6270   15.6860   -0.3110 C   0  0  1  0  0  0  0  0  0  0  0  0
   -1.8890   14.6220    1.8420 N   0  0  0  0  0  0  0  0  0  0  0  0
   -1.2310   15.2670   -0.8070 C   0  0  2  0  0  0  0  0  0  0  0  0
   -3.5130   15.1340   -1.3460 N   0  0  0  0  0  0  0  0  0  0  0  0
   -0.5670   14.6210    1.2400 C   0  0  0  0  0  0  0  0  0  0  0  0
   -1.4770   14.7820   -2.1460 N   0  0  0  0  0  0  0  0  0  0  0  0
   -2.6850   15.5260   -2.4580 C   0  0  1  0  0  0  0  0  0  0  0  0
   -0.6660   14.1790   -0.0980 N   0  0  0  0  0  0  0  0  0  0  0  0
   -3.2660   15.2700   -3.8370 C   0  0  0  0  0  0  0  0  0  0  0  0
   -2.6930   16.1840   -4.9600 C   0  0  0  0  0  0  0  0  0  0  0  0
   -2.0370   17.4570   -4.5700 N   0  0  0  0  0  0  0  0  0  0  0  0
   -1.2110   18.0000   -5.9010 P   0  0  0  0  0  0  0  0  0  0  0  0
   -0.7600   19.4810   -6.1800 O   0  0  0  0  0  0  0  0  0  0  0  0
    0.0180   17.0780   -6.2220 O   0  0  0  0  0  0  0  0  0  0  0  0
   -2.3240   17.7550   -7.0050 O   0  0  0  0  0  0  0  0  0  0  0  0
   -0.1620   19.9880   -7.6080 P   0  0  0  0  0  0  0  0  0  0  0  0
   -1.4310   20.7240   -8.2420 O   0  0  0  0  0  0  0  0  0  0  0  0
    1.0830   20.8330   -7.5290 O   0  0  0  0  0  0  0  0  0  0  0  0
   -0.0550   18.6870   -8.5590 O   0  0  0  0  0  0  0  0  0  0  0  0
  2  1  1  6
  2  3  1  0
  2  4  1  0
  3  5  1  0
  3  6  1  6
  4  7  1  0
  5  8  1  6
  6  9  1  0
  8  9  1  0
  5 10  1  0
  7 10  1  0
  9 11  1  6
 11 12  1  0
 12 13  1  0
 13 14  2  3
 14 15  1  0
 14 16  1  0
 14 17  1  0
 15 18  1  0
 18 19  1  0
 18 20  2  0
 18 21  1  0
M  END
>  <%Rank>  (425) 
32.366412

>  <N_hits>  (425) 
2

>  <submitter_name>  (425) 
nan

>  <original SMILES>  (425) 
nan

>  <∆G_unbound>  (425) 
3.09213

>  <∆G_bound>  (425) 
-9.169325

>  <regarded>  (425) 
4IQY_0_A_δ,mArh-6woj_B_0_B_β

>  <ref_pdb>  (425) 
nan

>  <smiles>  (425) 
NC1NCNC2NC(CCN=P(O)(O)OP(=O)(O)O)NC12

>  <submitter_email>  (425) 
nan

>  <disregarded>  (425) 


>  <LE>  (425) 
-0.583879

>  <submitter_institution>  (425) 
nan

>  <ref_mols>  (425) 
4IQY_0_A,mArh-6woj_B_0_B

>  <N_constrained_atoms>  (425) 
19.0

>  <ref_url>  (425) 
nan

>  <method>  (425) 
nan

>  <comRMSD>  (425) 
0.748606

>  <N_unconstrained_atoms>  (425) 
2.0

>  <∆∆G>  (425) 
-12.261455

>  <runtime>  (425) 
36.887636

>  <generation_date>  (425) 
nan

$$$$
5CB5_0_F_γ-mArh-x0895_0_A_α
     RDKit          3D

 17 18  0  0  0  0  0  0  0  0999 V2000
   -0.8120   12.3470   -4.2730 O   0  0  0  0  0  0  0  0  0  0  0  0
   -1.0160   13.7430   -4.5120 C   0  0  1  0  0  0  0  0  0  0  0  0
   -1.0070   14.5330   -3.2000 C   0  0  2  0  0  0  0  0  0  0  0  0
    0.1660   14.3430   -5.2480 C   0  0  2  0  0  0  0  0  0  0  0  0
    1.3970   13.7680   -4.8380 O   0  0  0  0  0  0  0  0  0  0  0  0
   -2.3850   15.0290   -2.7550 C   0  0  0  0  0  0  0  0  0  0  0  0
   -0.2140   15.7360   -3.4490 O   0  0  0  0  0  0  0  0  0  0  0  0
   -0.0890   15.7970   -4.8720 C   0  0  1  0  0  0  0  0  0  0  0  0
    0.8930   16.8710   -5.2940 C   0  0  0  0  0  0  0  0  0  0  0  0
   -3.4720   13.9920   -2.5950 C   0  0  0  0  0  0  0  0  0  0  0  0
   -4.4500   14.5230   -1.6570 N   0  0  0  0  0  0  0  0  0  0  0  0
   -4.0900   14.7480   -0.4600 C   0  0  0  0  0  0  0  0  0  0  0  0
   -4.7620   15.2320    0.6120 N   0  0  0  0  0  0  0  0  0  0  0  0
   -2.8100   14.4810   -0.0990 N   0  0  0  0  0  0  0  0  0  0  0  0
   -3.7920   15.7130    1.5720 C   0  0  0  0  0  0  0  0  0  0  0  0
   -2.5920   14.8450    1.2010 C   0  0  0  0  0  0  0  0  0  0  0  0
   -1.6350   14.5340    1.8960 O   0  0  0  0  0  0  0  0  0  0  0  0
  2  1  1  1
  2  3  1  0
  2  4  1  0
  4  5  1  1
  3  6  1  6
  3  7  1  0
  4  8  1  0
  7  8  1  0
  8  9  1  1
  6 10  1  0
 10 11  1  0
 11 12  2  3
 12 13  1  0
 12 14  1  0
 13 15  1  0
 14 16  1  0
 15 16  1  0
 16 17  2  0
M  END
>  <%Rank>  (426) 
32.442748

>  <N_hits>  (426) 
2

>  <submitter_name>  (426) 
nan

>  <original SMILES>  (426) 
nan

>  <∆G_unbound>  (426) 
0.548285

>  <∆G_bound>  (426) 
-5.076315

>  <regarded>  (426) 
5CB5_0_F_γ,mArh-x0895_0_A_α

>  <ref_pdb>  (426) 
nan

>  <smiles>  (426) 
CC1OC(CCN=C2NCC(=O)N2)C(O)C1O

>  <submitter_email>  (426) 
nan

>  <disregarded>  (426) 


>  <LE>  (426) 
-0.330859

>  <submitter_institution>  (426) 
nan

>  <ref_mols>  (426) 
5CB5_0_F,mArh-x0895_0_A

>  <N_constrained_atoms>  (426) 
15.0

>  <ref_url>  (426) 
nan

>  <method>  (426) 
nan

>  <comRMSD>  (426) 
0.522027

>  <N_unconstrained_atoms>  (426) 
2.0

>  <∆∆G>  (426) 
-5.6246

>  <runtime>  (426) 
29.09923

>  <generation_date>  (426) 
nan

$$$$
5CB5_0_M_δ-mArh-5cms_N_13_N_β
     RDKit          3D

 21 22  0  0  0  0  0  0  0  0999 V2000
   -4.0020   15.5780    1.7830 N   0  0  0  0  0  0  0  0  0  0  0  0
   -2.7680   15.4770    1.0170 C   0  0  2  0  0  0  0  0  0  0  0  0
   -2.8840   14.6900   -0.2630 C   0  0  2  0  0  0  0  0  0  0  0  0
   -1.7570   14.8300    1.8170 N   0  0  0  0  0  0  0  0  0  0  0  0
   -1.4670   14.7940   -0.7670 C   0  0  2  0  0  0  0  0  0  0  0  0
   -3.6670   15.2730   -1.4000 N   0  0  0  0  0  0  0  0  0  0  0  0
   -0.4170   14.7300    1.2130 C   0  0  0  0  0  0  0  0  0  0  0  0
   -1.6030   14.4970   -2.1360 N   0  0  0  0  0  0  0  0  0  0  0  0
   -2.5710   15.5270   -2.3360 C   0  0  1  0  0  0  0  0  0  0  0  0
   -0.5050   14.0560   -0.0500 N   0  0  0  0  0  0  0  0  0  0  0  0
   -2.8200   15.7650   -3.7920 C   0  0  0  0  0  0  0  0  0  0  0  0
   -1.6050   16.5570   -4.2540 C   0  0  0  0  0  0  0  0  0  0  0  0
   -1.9450   17.8800   -4.6190 O   0  0  0  0  0  0  0  0  0  0  0  0
   -1.7010   18.1360   -6.1450 P   0  0  1  0  0  0  0  0  0  0  0  0
   -1.1060   19.5320   -6.4690 O   0  0  0  0  0  0  0  0  0  0  0  0
   -0.3670   17.2740   -6.3000 O   0  0  0  0  0  0  0  0  0  0  0  0
   -2.7400   17.6160   -7.0210 O   0  0  0  0  0  0  0  0  0  0  0  0
   -0.3520   19.8990   -7.7900 P   0  0  0  0  0  0  0  0  0  0  0  0
   -1.4560   20.6970   -8.5900 O   0  0  0  0  0  0  0  0  0  0  0  0
    0.9040   20.6770   -7.6290 O   0  0  0  0  0  0  0  0  0  0  0  0
   -0.1610   18.6100   -8.7170 O   0  0  0  0  0  0  0  0  0  0  0  0
  2  1  1  1
  2  3  1  0
  2  4  1  0
  3  5  1  0
  3  6  1  6
  4  7  1  0
  5  8  1  6
  6  9  1  0
  8  9  1  0
  5 10  1  0
  7 10  1  0
  9 11  1  6
 11 12  1  0
 12 13  1  0
 13 14  1  0
 14 15  1  0
 14 16  1  6
 14 17  2  0
 15 18  1  0
 18 19  1  0
 18 20  2  0
 18 21  1  0
M  END
>  <%Rank>  (427) 
32.519084

>  <N_hits>  (427) 
2

>  <submitter_name>  (427) 
nan

>  <original SMILES>  (427) 
nan

>  <∆G_unbound>  (427) 
1.894859

>  <∆G_bound>  (427) 
-9.216966

>  <regarded>  (427) 
5CB5_0_M_δ,mArh-5cms_N_13_N_β

>  <ref_pdb>  (427) 
nan

>  <smiles>  (427) 
NC1NCNC2NC(CCOP(=O)(O)OP(=O)(O)O)NC12

>  <submitter_email>  (427) 
nan

>  <disregarded>  (427) 


>  <LE>  (427) 
-0.529134

>  <submitter_institution>  (427) 
nan

>  <ref_mols>  (427) 
5CB5_0_M,mArh-5cms_N_13_N

>  <N_constrained_atoms>  (427) 
19.0

>  <ref_url>  (427) 
nan

>  <method>  (427) 
nan

>  <comRMSD>  (427) 
0.724251

>  <N_unconstrained_atoms>  (427) 
2.0

>  <∆∆G>  (427) 
-11.111824

>  <runtime>  (427) 
39.152284

>  <generation_date>  (427) 
nan

$$$$
mArh-EU0087_0_A_α-5CMS_0_I_β
     RDKit          3D

 22 22  0  0  0  0  0  0  0  0999 V2000
   -3.8370   14.5270    1.5750 N   0  0  0  0  0  0  0  0  0  0  0  0
   -5.0750   14.4770    0.8360 C   0  0  0  0  0  0  0  0  0  0  0  0
   -6.2730   14.5220    1.6670 C   0  0  0  0  0  0  0  0  0  0  0  0
   -2.5480   14.6280    0.9480 C   0  0  0  0  0  0  0  0  0  0  0  0
   -5.1890   14.3830   -0.4770 N   0  0  0  0  0  0  0  0  0  0  0  0
   -1.4090   14.6650    1.5970 N   0  0  0  0  0  0  0  0  0  0  0  0
   -2.0310   14.7280   -0.6740 S   0  0  0  0  0  0  0  0  0  0  0  0
   -4.2020   14.2880   -1.5010 C   0  0  0  0  0  0  0  0  0  0  0  0
   -0.3470   14.8200   -0.4040 C   0  0  0  0  0  0  0  0  0  0  0  0
   -0.3050   14.7660    0.9620 C   0  0  0  0  0  0  0  0  0  0  0  0
   -4.0560   15.4530   -2.3860 C   0  0  0  0  0  0  0  0  0  0  0  0
   -3.4660   15.2790   -3.7460 C   0  0  0  0  0  0  0  0  0  0  0  0
   -2.2160   15.9810   -4.2100 C   0  0  0  0  0  0  0  0  0  0  0  0
   -2.2890   17.3130   -4.5730 O   0  0  0  0  0  0  0  0  0  0  0  0
   -1.7200   17.6370   -6.0190 P   0  0  0  0  0  0  0  0  0  0  0  0
   -1.2880   19.0960   -6.0400 O   0  0  0  0  0  0  0  0  0  0  0  0
   -0.0850   17.2800   -6.3170 O   0  0  0  0  0  0  0  0  0  0  0  0
   -2.7200   17.9030   -7.2430 O   0  0  0  0  0  0  0  0  0  0  0  0
   -0.5900   19.5980   -7.5510 P   0  0  0  0  0  0  0  0  0  0  0  0
   -0.3670   21.1740   -7.8510 O   0  0  0  0  0  0  0  0  0  0  0  0
    0.7580   19.3650   -6.8610 O   0  0  0  0  0  0  0  0  0  0  0  0
   -0.3280   18.5160   -8.6840 O   0  0  0  0  0  0  0  0  0  0  0  0
  1  2  1  0
  2  3  1  0
  1  4  1  0
  2  5  2  3
  4  6  2  0
  4  7  1  0
  5  8  1  0
  7  9  1  0
  6 10  1  0
  9 10  2  0
  8 11  1  0
 11 12  1  0
 12 13  1  0
 13 14  1  0
 14 15  1  0
 15 16  1  0
 15 17  1  0
 15 18  1  0
 16 19  1  0
 19 20  1  0
 19 21  1  0
 19 22  1  0
M  CHG  2  18  -1  21  -1
M  END
>  <%Rank>  (428) 
32.59542

>  <N_hits>  (428) 
2

>  <submitter_name>  (428) 
nan

>  <original SMILES>  (428) 
nan

>  <∆G_unbound>  (428) 
2.529146

>  <∆G_bound>  (428) 
-9.374949

>  <regarded>  (428) 
mArh-EU0087_0_A_α,5CMS_0_I_β

>  <ref_pdb>  (428) 
nan

>  <smiles>  (428) 
CC(=NCCCCO[PH]([O-])(O)O[PH]([O-])(O)O)Nc1nccs1

>  <submitter_email>  (428) 
nan

>  <disregarded>  (428) 


>  <LE>  (428) 
-0.541095

>  <submitter_institution>  (428) 
nan

>  <ref_mols>  (428) 
mArh-EU0087_0_A,5CMS_0_I

>  <N_constrained_atoms>  (428) 
18.0

>  <ref_url>  (428) 
nan

>  <method>  (428) 
nan

>  <comRMSD>  (428) 
0.652083

>  <N_unconstrained_atoms>  (428) 
4.0

>  <∆∆G>  (428) 
-11.904095

>  <runtime>  (428) 
25.694927

>  <generation_date>  (428) 
nan

$$$$
5CB5_0_E_γ-5CB5_0_B_β
     RDKit          3D

 16 16  0  0  0  0  0  0  0  0999 V2000
   -1.0060   12.6450   -4.6840 O   0  0  0  0  0  0  0  0  0  0  0  0
   -1.0890   13.7890   -3.9000 C   0  0  1  0  0  0  0  0  0  0  0  0
   -0.0940   14.5310   -2.9920 C   0  0  0  0  0  0  0  0  0  0  0  0
   -0.3250   14.5060   -4.9990 C   0  0  2  0  0  0  0  0  0  0  0  0
    1.0260   14.1660   -4.8890 O   0  0  0  0  0  0  0  0  0  0  0  0
   -0.1260   15.8950   -3.3300 O   0  0  0  0  0  0  0  0  0  0  0  0
   -0.6520   15.8860   -4.5810 C   0  0  1  0  0  0  0  0  0  0  0  0
   -0.2460   17.1150   -5.4080 C   0  0  0  0  0  0  0  0  0  0  0  0
   -1.6250   18.1620   -5.7100 P   0  0  0  0  0  0  0  0  0  0  0  0
   -1.0080   19.4200   -6.3120 O   0  0  0  0  0  0  0  0  0  0  0  0
   -2.5580   18.0730   -7.1240 O   0  0  0  0  0  0  0  0  0  0  0  0
   -2.1700   19.1220   -4.5670 O   0  0  0  0  0  0  0  0  0  0  0  0
   -0.1430   19.6350   -7.6230 P   0  0  0  0  0  0  0  0  0  0  0  0
   -1.3000   20.3300   -8.3550 O   0  0  0  0  0  0  0  0  0  0  0  0
    0.7470   21.0430   -7.8030 O   0  0  0  0  0  0  0  0  0  0  0  0
    0.0120   18.4530   -8.7500 O   0  0  0  0  0  0  0  0  0  0  0  0
  2  1  1  6
  2  3  1  0
  2  4  1  0
  4  5  1  1
  3  6  1  0
  4  7  1  0
  6  7  1  0
  7  8  1  6
  8  9  1  0
  9 10  1  0
  9 11  1  0
  9 12  1  0
 10 13  1  0
 13 14  1  0
 13 15  1  0
 13 16  1  0
M  CHG  2  11  -1  15  -1
M  END
>  <%Rank>  (429) 
32.671756

>  <N_hits>  (429) 
2

>  <submitter_name>  (429) 
nan

>  <original SMILES>  (429) 
nan

>  <∆G_unbound>  (429) 
0.683631

>  <∆G_bound>  (429) 
-7.103456

>  <regarded>  (429) 
5CB5_0_E_γ,5CB5_0_B_β

>  <ref_pdb>  (429) 
nan

>  <smiles>  (429) 
[O-][PH](O)(O)O[PH]([O-])(O)CC1OCC(O)C1O

>  <submitter_email>  (429) 
nan

>  <disregarded>  (429) 


>  <LE>  (429) 
-0.486693

>  <submitter_institution>  (429) 
nan

>  <ref_mols>  (429) 
5CB5_0_E,5CB5_0_B

>  <N_constrained_atoms>  (429) 
16.0

>  <ref_url>  (429) 
nan

>  <method>  (429) 
nan

>  <comRMSD>  (429) 
0.692548

>  <N_unconstrained_atoms>  (429) 
0.0

>  <∆∆G>  (429) 
-7.787087

>  <runtime>  (429) 
41.337452

>  <generation_date>  (429) 
nan

$$$$
5CMS_0_N_γ-mArh-5cb5_I_0_I_β
     RDKit          3D

 16 16  0  0  0  0  0  0  0  0999 V2000
    0.8850   12.5670   -4.2930 O   0  0  0  0  0  0  0  0  0  0  0  0
    0.0330   13.6880   -4.0900 C   0  0  1  0  0  0  0  0  0  0  0  0
    0.6180   14.6770   -3.0810 C   0  0  0  0  0  0  0  0  0  0  0  0
   -0.1170   14.5120   -5.3540 C   0  0  2  0  0  0  0  0  0  0  0  0
    1.0900   14.2850   -6.0780 O   0  0  0  0  0  0  0  0  0  0  0  0
    0.6340   15.9850   -3.6750 O   0  0  0  0  0  0  0  0  0  0  0  0
   -0.2770   15.9330   -4.7770 C   0  0  1  0  0  0  0  0  0  0  0  0
   -0.0060   17.1730   -5.6320 C   0  0  0  0  0  0  0  0  0  0  0  0
   -1.4830   18.1110   -6.0820 P   0  0  1  0  0  0  0  0  0  0  0  0
   -1.0910   19.5150   -6.6790 O   0  0  0  0  0  0  0  0  0  0  0  0
   -2.4870   17.3730   -6.8990 O   0  0  0  0  0  0  0  0  0  0  0  0
   -2.0710   18.5200   -4.6720 O   0  0  0  0  0  0  0  0  0  0  0  0
   -0.1960   19.9780   -7.8680 P   0  0  0  0  0  0  0  0  0  0  0  0
   -1.2490   20.7950   -8.7350 O   0  0  0  0  0  0  0  0  0  0  0  0
    1.0570   20.7280   -7.5790 O   0  0  0  0  0  0  0  0  0  0  0  0
   -0.0450   18.6940   -8.8110 O   0  0  0  0  0  0  0  0  0  0  0  0
  2  1  1  6
  2  3  1  0
  2  4  1  0
  4  5  1  6
  3  6  1  0
  4  7  1  0
  6  7  1  0
  7  8  1  6
  8  9  1  0
  9 10  1  0
  9 11  2  0
  9 12  1  1
 10 13  1  0
 13 14  1  0
 13 15  2  0
 13 16  1  0
M  END
>  <%Rank>  (430) 
32.748092

>  <N_hits>  (430) 
2

>  <submitter_name>  (430) 
nan

>  <original SMILES>  (430) 
nan

>  <∆G_unbound>  (430) 
1.057928

>  <∆G_bound>  (430) 
-8.872821

>  <regarded>  (430) 
5CMS_0_N_γ,mArh-5cb5_I_0_I_β

>  <ref_pdb>  (430) 
nan

>  <smiles>  (430) 
O=P(O)(O)OP(=O)(O)CC1OCC(O)C1O

>  <submitter_email>  (430) 
nan

>  <disregarded>  (430) 


>  <LE>  (430) 
-0.620672

>  <submitter_institution>  (430) 
nan

>  <ref_mols>  (430) 
5CMS_0_N,mArh-5cb5_I_0_I

>  <N_constrained_atoms>  (430) 
16.0

>  <ref_url>  (430) 
nan

>  <method>  (430) 
nan

>  <comRMSD>  (430) 
0.759651

>  <N_unconstrained_atoms>  (430) 
0.0

>  <∆∆G>  (430) 
-9.930749

>  <runtime>  (430) 
36.572344

>  <generation_date>  (430) 
nan

$$$$
5CMS_0_N_γ-mArh-EU0123_0_A_α
     RDKit          3D

 21 22  0  0  0  0  0  0  0  0999 V2000
    0.9760   12.5320   -3.8470 O   0  0  0  0  0  0  0  0  0  0  0  0
    0.9920   13.9280   -4.0820 C   0  0  2  0  0  0  0  0  0  0  0  0
    0.5350   14.8410   -2.9380 C   0  0  2  0  0  0  0  0  0  0  0  0
    0.0480   14.2930   -5.1910 C   0  0  2  0  0  0  0  0  0  0  0  0
    0.5770   13.8320   -6.4080 O   0  0  0  0  0  0  0  0  0  0  0  0
   -0.4690   14.2150   -1.9430 C   0  0  0  0  0  0  0  0  0  0  0  0
   -0.0340   16.0100   -3.5620 O   0  0  0  0  0  0  0  0  0  0  0  0
   -0.1500   15.8030   -4.9820 C   0  0  1  0  0  0  0  0  0  0  0  0
    0.7930   16.8080   -5.6300 C   0  0  0  0  0  0  0  0  0  0  0  0
   -0.0420   14.3240   -0.4640 C   0  0  0  0  0  0  0  0  0  0  0  0
   -1.1600   13.9570    0.5250 C   0  0  0  0  0  0  0  0  0  0  0  0
   -2.2170   15.0560    0.6170 C   0  0  0  0  0  0  0  0  0  0  0  0
   -3.5470   14.7420    1.3040 C   0  0  0  0  0  0  0  0  0  0  0  0
   -4.7650   14.8580    0.4050 C   0  0  0  0  0  0  0  0  0  0  0  0
   -4.6060   15.3330   -0.9070 C   0  0  0  0  0  0  0  0  0  0  0  0
   -6.0620   14.5060    0.8250 C   0  0  0  0  0  0  0  0  0  0  0  0
   -6.3470   13.9910    2.1970 C   0  0  0  0  0  0  0  0  0  0  0  0
   -5.7180   15.4310   -1.7280 C   0  0  0  0  0  0  0  0  0  0  0  0
   -7.1010   14.6500   -0.0920 C   0  0  0  0  0  0  0  0  0  0  0  0
   -6.6050   15.0330    3.1310 O   0  0  0  0  0  0  0  0  0  0  0  0
   -6.9630   15.0990   -1.3510 N   0  0  0  0  0  0  0  0  0  0  0  0
  2  1  1  1
  2  3  1  0
  2  4  1  0
  4  5  1  6
  3  6  1  6
  3  7  1  0
  4  8  1  0
  7  8  1  0
  8  9  1  6
  6 10  1  0
 10 11  1  0
 11 12  1  0
 12 13  1  0
 13 14  1  0
 14 15  2  0
 14 16  1  0
 16 17  1  0
 15 18  1  0
 16 19  2  0
 17 20  1  0
 18 21  2  0
 19 21  1  0
M  END
>  <%Rank>  (431) 
32.824427

>  <N_hits>  (431) 
2

>  <submitter_name>  (431) 
nan

>  <original SMILES>  (431) 
nan

>  <∆G_unbound>  (431) 
0.04044

>  <∆G_bound>  (431) 
-8.722396

>  <regarded>  (431) 
5CMS_0_N_γ,mArh-EU0123_0_A_α

>  <ref_pdb>  (431) 
nan

>  <smiles>  (431) 
CC1OC(CCCCCc2ccncc2CO)C(O)C1O

>  <submitter_email>  (431) 
nan

>  <disregarded>  (431) 


>  <LE>  (431) 
-0.417278

>  <submitter_institution>  (431) 
nan

>  <ref_mols>  (431) 
5CMS_0_N,mArh-EU0123_0_A

>  <N_constrained_atoms>  (431) 
17.0

>  <ref_url>  (431) 
nan

>  <method>  (431) 
nan

>  <comRMSD>  (431) 
0.563044

>  <N_unconstrained_atoms>  (431) 
4.0

>  <∆∆G>  (431) 
-8.762836

>  <runtime>  (431) 
29.611963

>  <generation_date>  (431) 
nan

$$$$
5CMS_0_O_α-mArh-1vhu_0_A_α
     RDKit          3D

 20 21  0  0  0  0  0  0  0  0999 V2000
   -0.7570   22.0170   -8.4330 C   0  0  1  0  0  0  0  0  0  0  0  0
   -1.7420   22.4240   -7.3500 C   0  0  0  0  0  0  0  0  0  0  0  0
   -3.2200   22.4770   -7.5740 N   0  0  0  0  0  0  0  0  0  0  0  0
   -0.1600   20.3620   -7.8820 S   0  0  0  0  0  0  0  0  0  0  0  0
   -1.4110   22.4320   -9.7600 C   0  0  2  0  0  0  0  0  0  0  0  0
   -0.3350   19.3080   -8.8710 O   0  0  0  0  0  0  0  0  0  0  0  0
   -0.9470   20.0560   -6.6890 O   0  0  0  0  0  0  0  0  0  0  0  0
    1.2400   20.6520   -7.5490 O   0  0  0  0  0  0  0  0  0  0  0  0
   -1.5570   21.5450  -10.8650 O   0  0  0  0  0  0  0  0  0  0  0  0
   -1.1610   23.8140  -10.3680 C   0  0  1  0  0  0  0  0  0  0  0  0
    0.0920   23.9270  -11.0650 O   0  0  0  0  0  0  0  0  0  0  0  0
   -2.5620   22.2800  -11.5570 C   0  0  2  0  0  0  0  0  0  0  0  0
   -2.2100   23.7880  -11.4570 C   0  0  1  0  0  0  0  0  0  0  0  0
   -3.5820   22.8450   -8.9520 C   0  0  0  0  0  0  0  0  0  0  0  0
   -3.7450   23.5280   -6.6800 C   0  0  0  0  0  0  0  0  0  0  0  0
   -3.8200   22.0690  -10.9560 O   0  0  0  0  0  0  0  0  0  0  0  0
   -3.3540   24.6130  -11.2280 O   0  0  0  0  0  0  0  0  0  0  0  0
   -5.0830   23.1120   -9.1180 C   0  0  0  0  0  0  0  0  0  0  0  0
   -5.2250   23.8100   -6.9180 C   0  0  0  0  0  0  0  0  0  0  0  0
   -5.4980   24.1760   -8.2680 O   0  0  0  0  0  0  0  0  0  0  0  0
  1  2  1  1
  2  3  1  0
  1  4  1  0
  1  5  1  0
  4  6  2  0
  4  7  2  0
  4  8  1  0
  5  9  1  6
  5 10  1  0
 10 11  1  6
  9 12  1  0
 10 13  1  0
 12 13  1  0
  3 14  1  0
  3 15  1  0
 12 16  1  1
 13 17  1  1
 14 18  1  0
 15 19  1  0
 18 20  1  0
 19 20  1  0
M  CHG  1   8  -1
M  END
>  <%Rank>  (432) 
32.900763

>  <N_hits>  (432) 
2

>  <submitter_name>  (432) 
nan

>  <original SMILES>  (432) 
nan

>  <∆G_unbound>  (432) 
1.713892

>  <∆G_bound>  (432) 
-4.8694

>  <regarded>  (432) 
5CMS_0_O_α,mArh-1vhu_0_A_α

>  <ref_pdb>  (432) 
nan

>  <smiles>  (432) 
O=S(=O)([O-])C(CN1CCOCC1)C1OC(O)C(O)C1O

>  <submitter_email>  (432) 
nan

>  <disregarded>  (432) 


>  <LE>  (432) 
-0.329165

>  <submitter_institution>  (432) 
nan

>  <ref_mols>  (432) 
5CMS_0_O,mArh-1vhu_0_A

>  <N_constrained_atoms>  (432) 
20.0

>  <ref_url>  (432) 
nan

>  <method>  (432) 
nan

>  <comRMSD>  (432) 
0.697555

>  <N_unconstrained_atoms>  (432) 
0.0

>  <∆∆G>  (432) 
-6.583291

>  <runtime>  (432) 
36.972321

>  <generation_date>  (432) 
nan

$$$$
mArh-5cb3_0_A_γ-mArh-EU0860_0_A_α
     RDKit          3D

 20 21  0  0  0  0  0  0  0  0999 V2000
   -1.8000   12.6930   -4.0420 O   0  0  0  0  0  0  0  0  0  0  0  0
   -1.4670   14.0660   -4.1930 C   0  0  1  0  0  0  0  0  0  0  0  0
   -1.1190   14.7470   -2.8710 C   0  0  0  0  0  0  0  0  0  0  0  0
   -0.1530   14.2660   -4.9180 C   0  0  2  0  0  0  0  0  0  0  0  0
    0.8560   13.4170   -4.3500 O   0  0  0  0  0  0  0  0  0  0  0  0
   -0.1840   15.8020   -3.2160 O   0  0  0  0  0  0  0  0  0  0  0  0
   -0.1250   15.7690   -4.6480 C   0  0  1  0  0  0  0  0  0  0  0  0
    1.0000   16.6380   -5.1530 C   0  0  0  0  0  0  0  0  0  0  0  0
    0.4020   12.5060   -3.3300 C   0  0  0  0  0  0  0  0  0  0  0  0
    0.1820   11.1100   -3.9210 C   0  0  0  0  0  0  0  0  0  0  0  0
   -1.2380   10.5990   -4.1950 C   0  0  0  0  0  0  0  0  0  0  0  0
   -1.6400   10.6070   -5.6750 C   0  0  0  0  0  0  0  0  0  0  0  0
   -1.2340    9.3280   -6.4400 C   0  0  0  0  0  0  0  0  0  0  0  0
   -0.3820    9.6130   -7.5870 N   0  0  0  0  0  0  0  0  0  0  0  0
    0.3340    8.7350   -8.3600 C   0  0  0  0  0  0  0  0  0  0  0  0
   -0.2450   10.8910   -7.9780 N   0  0  0  0  0  0  0  0  0  0  0  0
    0.9750    9.5060   -9.3150 C   0  0  0  0  0  0  0  0  0  0  0  0
    0.5750   10.8180   -9.0230 C   0  0  0  0  0  0  0  0  0  0  0  0
    1.8540    9.0760  -10.3730 C   0  0  0  0  0  0  0  0  0  0  0  0
    2.3250    7.9470  -10.4520 O   0  0  0  0  0  0  0  0  0  0  0  0
  2  1  1  1
  2  3  1  0
  2  4  1  0
  4  5  1  1
  3  6  1  0
  4  7  1  0
  6  7  1  0
  7  8  1  1
  5  9  1  0
  9 10  1  0
 10 11  1  0
 11 12  1  0
 12 13  1  0
 13 14  1  0
 14 15  1  0
 14 16  1  0
 15 17  2  0
 16 18  2  0
 17 18  1  0
 17 19  1  0
 19 20  2  0
M  END
>  <%Rank>  (433) 
32.977099

>  <N_hits>  (433) 
2

>  <submitter_name>  (433) 
nan

>  <original SMILES>  (433) 
nan

>  <∆G_unbound>  (433) 
0.801511

>  <∆G_bound>  (433) 
-3.528258

>  <regarded>  (433) 
mArh-5cb3_0_A_γ,mArh-EU0860_0_A_α

>  <ref_pdb>  (433) 
nan

>  <smiles>  (433) 
CC1OCC(O)C1OCCCCCn1cc(C=O)cn1

>  <submitter_email>  (433) 
nan

>  <disregarded>  (433) 


>  <LE>  (433) 
-0.216488

>  <submitter_institution>  (433) 
nan

>  <ref_mols>  (433) 
mArh-5cb3_0_A,mArh-EU0860_0_A

>  <N_constrained_atoms>  (433) 
16.0

>  <ref_url>  (433) 
nan

>  <method>  (433) 
nan

>  <comRMSD>  (433) 
0.433239

>  <N_unconstrained_atoms>  (433) 
4.0

>  <∆∆G>  (433) 
-4.329769

>  <runtime>  (433) 
31.615781

>  <generation_date>  (433) 
nan

$$$$
mArh-5fud_A_0_A_α-6WOJ_0_D_α
     RDKit          3D

 15 15  0  0  0  0  0  0  0  0999 V2000
   -0.7270   19.1980   -6.5330 O   0  0  0  0  0  0  0  0  0  0  0  0
   -0.2860   19.7270   -7.8230 S   0  0  0  0  0  0  0  0  0  0  0  0
    0.6850   20.8030   -7.7780 O   0  0  0  0  0  0  0  0  0  0  0  0
   -0.0570   18.6760   -8.8370 O   0  0  0  0  0  0  0  0  0  0  0  0
   -1.7630   20.5230   -8.3490 C   0  0  0  0  0  0  0  0  0  0  0  0
   -2.1610   21.9080   -7.9090 C   0  0  0  0  0  0  0  0  0  0  0  0
   -3.6460   22.0490   -7.9920 N   0  0  0  0  0  0  0  0  0  0  0  0
   -4.1320   22.6360   -9.2530 C   0  0  2  0  0  0  0  0  0  0  0  0
   -4.1730   22.7370   -6.8350 C   0  0  2  0  0  0  0  0  0  0  0  0
   -3.6310   23.9540   -9.2840 O   0  0  0  0  0  0  0  0  0  0  0  0
   -4.3000   21.8340   -5.7450 O   0  0  0  0  0  0  0  0  0  0  0  0
   -5.6480   22.8480   -9.3470 C   0  0  0  0  0  0  0  0  0  0  0  0
   -5.5710   23.3580   -7.1260 C   0  0  1  0  0  0  0  0  0  0  0  0
   -5.6970   24.3990   -6.1950 O   0  0  0  0  0  0  0  0  0  0  0  0
   -5.9160   23.8700   -8.4150 O   0  0  0  0  0  0  0  0  0  0  0  0
  1  2  2  0
  2  3  2  0
  2  4  1  0
  2  5  1  0
  5  6  1  0
  6  7  1  0
  7  8  1  0
  7  9  1  0
  8 10  1  1
  9 11  1  1
  8 12  1  0
  9 13  1  0
 13 14  1  1
 12 15  1  0
 13 15  1  0
M  CHG  1   4  -1
M  END
>  <%Rank>  (434) 
33.053435

>  <N_hits>  (434) 
2

>  <submitter_name>  (434) 
nan

>  <original SMILES>  (434) 
nan

>  <∆G_unbound>  (434) 
1.386747

>  <∆G_bound>  (434) 
-11.734982

>  <regarded>  (434) 
mArh-5fud_A_0_A_α,6WOJ_0_D_α

>  <ref_pdb>  (434) 
nan

>  <smiles>  (434) 
O=S(=O)([O-])CCN1C(O)COC(O)C1O

>  <submitter_email>  (434) 
nan

>  <disregarded>  (434) 


>  <LE>  (434) 
-0.874782

>  <submitter_institution>  (434) 
nan

>  <ref_mols>  (434) 
mArh-5fud_A_0_A,6WOJ_0_D

>  <N_constrained_atoms>  (434) 
15.0

>  <ref_url>  (434) 
nan

>  <method>  (434) 
nan

>  <comRMSD>  (434) 
0.864864

>  <N_unconstrained_atoms>  (434) 
0.0

>  <∆∆G>  (434) 
-13.121729

>  <runtime>  (434) 
29.309544

>  <generation_date>  (434) 
nan

$$$$
mArh-4iqy_A_0_A_γ-mArh-5cms_D_3_D_α
     RDKit          3D

 16 16  0  0  0  0  0  0  0  0999 V2000
   -1.3730   12.8580   -3.7530 O   0  0  0  0  0  0  0  0  0  0  0  0
   -0.2050   13.5740   -3.6320 C   0  0  2  0  0  0  0  0  0  0  0  0
   -0.3780   14.6680   -2.5320 C   0  0  0  0  0  0  0  0  0  0  0  0
    0.1370   14.3820   -4.8620 C   0  0  2  0  0  0  0  0  0  0  0  0
    1.5430   14.3420   -4.8780 O   0  0  0  0  0  0  0  0  0  0  0  0
    0.0340   15.8420   -3.1710 O   0  0  0  0  0  0  0  0  0  0  0  0
   -0.4470   15.6880   -4.4240 C   0  0  1  0  0  0  0  0  0  0  0  0
   -0.2500   16.9290   -5.2860 C   0  0  0  0  0  0  0  0  0  0  0  0
   -1.7270   17.7140   -5.7830 P   0  0  0  0  0  0  0  0  0  0  0  0
   -2.8690   16.9140   -6.6650 O   0  0  0  0  0  0  0  0  0  0  0  0
   -2.1730   19.1550   -5.0810 O   0  0  0  0  0  0  0  0  0  0  0  0
   -1.3620   18.3900   -7.0940 O   0  0  0  0  0  0  0  0  0  0  0  0
   -0.4960   19.5780   -7.4900 P   0  0  0  0  0  0  0  0  0  0  0  0
   -1.8300   20.4890   -7.9040 O   0  0  0  0  0  0  0  0  0  0  0  0
    0.1420   18.6410   -8.6710 O   0  0  0  0  0  0  0  0  0  0  0  0
    0.4510   20.6870   -7.9530 O   0  0  0  0  0  0  0  0  0  0  0  0
  2  1  1  6
  2  3  1  0
  2  4  1  0
  4  5  1  1
  3  6  1  0
  4  7  1  0
  6  7  1  0
  7  8  1  6
  8  9  1  0
  9 10  1  0
  9 11  1  0
  9 12  1  0
 12 13  1  0
 13 14  1  0
 13 15  1  0
 13 16  1  0
M  CHG  2  10  -1  15  -1
M  END
>  <%Rank>  (435) 
33.129771

>  <N_hits>  (435) 
2

>  <submitter_name>  (435) 
nan

>  <original SMILES>  (435) 
nan

>  <∆G_unbound>  (435) 
1.623423

>  <∆G_bound>  (435) 
-8.686638

>  <regarded>  (435) 
mArh-4iqy_A_0_A_γ,mArh-5cms_D_3_D_α

>  <ref_pdb>  (435) 
nan

>  <smiles>  (435) 
[O-][PH](O)(O)O[PH]([O-])(O)CC1OCC(O)C1O

>  <submitter_email>  (435) 
nan

>  <disregarded>  (435) 


>  <LE>  (435) 
-0.644379

>  <submitter_institution>  (435) 
nan

>  <ref_mols>  (435) 
mArh-4iqy_A_0_A,mArh-5cms_D_3_D

>  <N_constrained_atoms>  (435) 
16.0

>  <ref_url>  (435) 
nan

>  <method>  (435) 
nan

>  <comRMSD>  (435) 
0.773617

>  <N_unconstrained_atoms>  (435) 
0.0

>  <∆∆G>  (435) 
-10.310061

>  <runtime>  (435) 
37.976191

>  <generation_date>  (435) 
nan

$$$$
6MEA_0_B_β-mArh-x0950_1_A_α
     RDKit          3D

 17 16  0  0  0  0  0  0  0  0999 V2000
   -1.6890   20.2770   -6.9940 O   0  0  0  0  0  0  0  0  0  0  0  0
   -0.5360   19.7550   -7.8540 P   0  0  0  0  0  0  0  0  0  0  0  0
   -0.2510   18.5720   -6.6930 O   0  0  0  0  0  0  0  0  0  0  0  0
    0.4620   21.0000   -7.7960 O   0  0  0  0  0  0  0  0  0  0  0  0
    0.2650   18.8340   -8.7540 O   0  0  0  0  0  0  0  0  0  0  0  0
   -1.5440   18.0670   -5.8450 P   0  0  0  0  0  0  0  0  0  0  0  0
   -0.7920   16.8200   -5.3280 O   0  0  0  0  0  0  0  0  0  0  0  0
   -2.7170   17.1870   -6.6230 O   0  0  0  0  0  0  0  0  0  0  0  0
   -1.8490   18.7410   -4.4140 O   0  0  0  0  0  0  0  0  0  0  0  0
   -1.3440   15.6430   -4.8380 C   0  0  0  0  0  0  0  0  0  0  0  0
   -0.2660   14.8800   -4.0490 C   0  0  0  0  0  0  0  0  0  0  0  0
    0.8400   14.2650   -4.9090 C   0  0  0  0  0  0  0  0  0  0  0  0
    1.1680   12.7800   -4.6600 C   0  0  2  0  0  0  0  0  0  0  0  0
    0.4240   11.9710   -5.4830 O   0  0  0  0  0  0  0  0  0  0  0  0
    0.9340   12.4060   -3.2260 C   0  0  0  0  0  0  0  0  0  0  0  0
    0.3410   11.3240   -2.9880 O   0  0  0  0  0  0  0  0  0  0  0  0
    1.3440   13.1940   -2.1670 O   0  0  0  0  0  0  0  0  0  0  0  0
  1  2  1  0
  2  3  1  0
  2  4  1  0
  2  5  1  0
  3  6  1  0
  6  7  1  0
  6  8  1  0
  6  9  1  0
  7 10  1  0
 10 11  1  0
 11 12  1  0
 12 13  1  0
 13 14  1  6
 13 15  1  0
 15 16  2  0
 15 17  1  0
M  CHG  2   4  -1   8  -1
M  END
>  <%Rank>  (436) 
33.206107

>  <N_hits>  (436) 
2

>  <submitter_name>  (436) 
nan

>  <original SMILES>  (436) 
nan

>  <∆G_unbound>  (436) 
0.427881

>  <∆G_bound>  (436) 
-8.310131

>  <regarded>  (436) 
6MEA_0_B_β,mArh-x0950_1_A_α

>  <ref_pdb>  (436) 
nan

>  <smiles>  (436) 
O=C(O)[C@@H](O)CCCO[PH]([O-])(O)O[PH]([O-])(O)O

>  <submitter_email>  (436) 
nan

>  <disregarded>  (436) 


>  <LE>  (436) 
-0.514001

>  <submitter_institution>  (436) 
nan

>  <ref_mols>  (436) 
6MEA_0_B,mArh-x0950_1_A

>  <N_constrained_atoms>  (436) 
15.0

>  <ref_url>  (436) 
nan

>  <method>  (436) 
nan

>  <comRMSD>  (436) 
0.618105

>  <N_unconstrained_atoms>  (436) 
2.0

>  <∆∆G>  (436) 
-8.738012

>  <runtime>  (436) 
33.643106

>  <generation_date>  (436) 
nan

$$$$
5CB5_0_F_α-5CB5_0_N_γ
     RDKit          3D

 25 26  0  0  0  0  0  0  0  0999 V2000
   -1.7060   21.4580   -8.5720 C   0  0  0  0  0  0  0  0  0  0  0  0
   -3.0290   21.7400   -9.2680 C   0  0  2  0  0  0  0  0  0  0  0  0
   -3.4170   23.1870   -9.2580 C   0  0  1  0  0  0  0  0  0  0  0  0
   -4.0960   21.0870   -8.5870 O   0  0  0  0  0  0  0  0  0  0  0  0
   -4.3690   23.5480  -10.2640 O   0  0  0  0  0  0  0  0  0  0  0  0
   -3.9560   23.2500   -7.8880 C   0  0  2  0  0  0  0  0  0  0  0  0
   -4.8900   22.0470   -7.9030 C   0  0  2  0  0  0  0  0  0  0  0  0
   -4.6180   24.4190   -7.6620 O   0  0  0  0  0  0  0  0  0  0  0  0
   -5.1900   21.5330   -6.5950 O   0  0  0  0  0  0  0  0  0  0  0  0
   -5.1070   24.4250   -6.4000 C   0  0  1  0  0  0  0  0  0  0  0  0
   -4.0350   21.3440   -5.7810 C   0  0  0  0  0  0  0  0  0  0  0  0
   -4.5230   25.6320   -5.7070 C   0  0  0  0  0  0  0  0  0  0  0  0
   -6.4650   24.5010   -6.6690 O   0  0  0  0  0  0  0  0  0  0  0  0
   -3.0600   20.3490   -6.4240 C   0  0  0  0  0  0  0  0  0  0  0  0
   -1.8880   19.9640   -5.5890 C   0  0  0  0  0  0  0  0  0  0  0  0
   -1.4940   18.4860   -5.6210 C   0  0  0  0  0  0  0  0  0  0  0  0
   -0.0690   18.1970   -6.1140 C   0  0  0  0  0  0  0  0  0  0  0  0
    0.6650   17.0760   -5.3790 C   0  0  0  0  0  0  0  0  0  0  0  0
   -0.2500   16.0340   -4.7330 C   0  0  2  0  0  0  0  0  0  0  0  0
    0.0050   16.0210   -3.3130 O   0  0  0  0  0  0  0  0  0  0  0  0
   -0.1200   14.5600   -5.1120 C   0  0  1  0  0  0  0  0  0  0  0  0
    1.2260   14.0740   -5.0150 O   0  0  0  0  0  0  0  0  0  0  0  0
   -0.4750   14.7610   -2.8010 C   0  0  0  0  0  0  0  0  0  0  0  0
   -0.9770   13.9760   -4.0120 C   0  0  2  0  0  0  0  0  0  0  0  0
   -0.7490   12.5760   -3.8680 O   0  0  0  0  0  0  0  0  0  0  0  0
  2  1  1  1
  2  3  1  0
  2  4  1  0
  3  5  1  6
  3  6  1  0
  4  7  1  0
  6  7  1  0
  6  8  1  6
  7  9  1  1
  8 10  1  0
  9 11  1  0
 10 12  1  1
 10 13  1  0
 11 14  1  0
 14 15  1  0
 15 16  1  0
 16 17  1  0
 17 18  1  0
 19 18  1  6
 19 20  1  0
 19 21  1  0
 21 22  1  1
 20 23  1  0
 21 24  1  0
 23 24  1  0
 24 25  1  1
M  END
>  <%Rank>  (437) 
33.282443

>  <N_hits>  (437) 
2

>  <submitter_name>  (437) 
nan

>  <original SMILES>  (437) 
nan

>  <∆G_unbound>  (437) 
0.969165

>  <∆G_bound>  (437) 
-7.779128

>  <regarded>  (437) 
5CB5_0_F_α,5CB5_0_N_γ

>  <ref_pdb>  (437) 
nan

>  <smiles>  (437) 
CC1OC(OCCCCCCC2OCC(O)C2O)C(O[C@@H](C)O)C1O

>  <submitter_email>  (437) 
nan

>  <disregarded>  (437) 


>  <LE>  (437) 
-0.349932

>  <submitter_institution>  (437) 
nan

>  <ref_mols>  (437) 
5CB5_0_F,5CB5_0_N

>  <N_constrained_atoms>  (437) 
20.0

>  <ref_url>  (437) 
nan

>  <method>  (437) 
nan

>  <comRMSD>  (437) 
0.585911

>  <N_unconstrained_atoms>  (437) 
5.0

>  <∆∆G>  (437) 
-8.748293

>  <runtime>  (437) 
40.199387

>  <generation_date>  (437) 
nan

$$$$
5DUS_0_A_β-mArh-5cb5_I_0_I_γ
     RDKit          3D

 16 16  0  0  0  0  0  0  0  0999 V2000
   -1.5280   20.6460   -7.9260 O   0  0  0  0  0  0  0  0  0  0  0  0
   -0.4480   19.3960   -7.7260 P   0  0  0  0  0  0  0  0  0  0  0  0
   -0.1840   18.6830   -6.2690 O   0  0  0  0  0  0  0  0  0  0  0  0
    0.6630   20.4160   -7.4770 O   0  0  0  0  0  0  0  0  0  0  0  0
    0.1880   18.6700   -8.9600 O   0  0  0  0  0  0  0  0  0  0  0  0
   -1.5460   18.0850   -5.7020 P   0  0  0  0  0  0  0  0  0  0  0  0
   -1.0500   16.6190   -5.3380 O   0  0  0  0  0  0  0  0  0  0  0  0
   -2.6860   17.3000   -6.6730 O   0  0  0  0  0  0  0  0  0  0  0  0
   -1.9620   18.5450   -4.2550 O   0  0  0  0  0  0  0  0  0  0  0  0
    0.1010   16.1670   -4.6550 C   0  0  1  0  0  0  0  0  0  0  0  0
   -0.0680   16.1600   -3.2800 O   0  0  0  0  0  0  0  0  0  0  0  0
    0.6110   14.7740   -4.8820 C   0  0  2  0  0  0  0  0  0  0  0  0
    0.2240   14.1430   -6.0620 O   0  0  0  0  0  0  0  0  0  0  0  0
   -0.8620   15.0290   -3.0280 C   0  0  0  0  0  0  0  0  0  0  0  0
   -0.0970   13.9500   -3.7810 C   0  0  1  0  0  0  0  0  0  0  0  0
   -0.9250   13.0180   -4.3620 O   0  0  0  0  0  0  0  0  0  0  0  0
  1  2  1  0
  2  3  1  0
  2  4  1  0
  2  5  1  0
  3  6  1  0
  6  7  1  0
  6  8  1  0
  6  9  1  0
 10  7  1  6
 10 11  1  0
 10 12  1  0
 12 13  1  6
 11 14  1  0
 12 15  1  0
 14 15  1  0
 15 16  1  6
M  CHG  2   4  -1   8  -1
M  END
>  <%Rank>  (438) 
33.358779

>  <N_hits>  (438) 
2

>  <submitter_name>  (438) 
nan

>  <original SMILES>  (438) 
nan

>  <∆G_unbound>  (438) 
1.160673

>  <∆G_bound>  (438) 
-6.012962

>  <regarded>  (438) 
5DUS_0_A_β,mArh-5cb5_I_0_I_γ

>  <ref_pdb>  (438) 
nan

>  <smiles>  (438) 
[O-][PH](O)(O)O[PH]([O-])(O)OC1OCC(O)C1O

>  <submitter_email>  (438) 
nan

>  <disregarded>  (438) 


>  <LE>  (438) 
-0.448352

>  <submitter_institution>  (438) 
nan

>  <ref_mols>  (438) 
5DUS_0_A,mArh-5cb5_I_0_I

>  <N_constrained_atoms>  (438) 
16.0

>  <ref_url>  (438) 
nan

>  <method>  (438) 
nan

>  <comRMSD>  (438) 
0.676793

>  <N_unconstrained_atoms>  (438) 
0.0

>  <∆∆G>  (438) 
-7.173635

>  <runtime>  (438) 
38.824573

>  <generation_date>  (438) 
nan

$$$$
mArh-5fud_B_0_B_α-6FX7_0_A_β
     RDKit          3D

 16 16  0  0  0  0  0  0  0  0999 V2000
   -0.8820   19.5050   -6.4320 N   0  0  0  0  0  0  0  0  0  0  0  0
   -0.6670   20.0510   -7.8220 S   0  0  1  0  0  0  0  0  0  0  0  0
    0.4690   21.0360   -7.7820 O   0  0  0  0  0  0  0  0  0  0  0  0
   -1.6370   18.0230   -6.2480 P   0  0  0  0  0  0  0  0  0  0  0  0
   -0.2570   18.7650   -8.8480 O   0  0  0  0  0  0  0  0  0  0  0  0
   -2.1340   20.8990   -8.3670 C   0  0  0  0  0  0  0  0  0  0  0  0
   -0.3890   17.3060   -5.7340 O   0  0  0  0  0  0  0  0  0  0  0  0
   -2.3300   17.6430   -4.8110 O   0  0  0  0  0  0  0  0  0  0  0  0
   -2.9410   18.5380   -6.8240 O   0  0  0  0  0  0  0  0  0  0  0  0
   -2.2750   22.2570   -7.8170 C   0  0  0  0  0  0  0  0  0  0  0  0
   -3.5730   22.7760   -7.9730 N   0  0  0  0  0  0  0  0  0  0  0  0
   -4.2010   22.7790   -9.2410 C   0  0  0  0  0  0  0  0  0  0  0  0
   -4.0140   23.6920   -7.0240 C   0  0  0  0  0  0  0  0  0  0  0  0
   -5.6940   22.9420   -9.1150 C   0  0  0  0  0  0  0  0  0  0  0  0
   -5.4900   23.8280   -7.0480 C   0  0  0  0  0  0  0  0  0  0  0  0
   -5.8910   24.0940   -8.3450 O   0  0  0  0  0  0  0  0  0  0  0  0
  1  2  2  0
  2  3  2  0
  1  4  1  0
  2  5  1  6
  2  6  1  0
  4  7  1  0
  4  8  1  0
  4  9  1  0
  6 10  1  0
 10 11  1  0
 11 12  1  0
 11 13  1  0
 12 14  1  0
 13 15  1  0
 14 16  1  0
 15 16  1  0
M  CHG  2   5  -1   8  -1
M  END
>  <%Rank>  (439) 
33.435115

>  <N_hits>  (439) 
2

>  <submitter_name>  (439) 
nan

>  <original SMILES>  (439) 
nan

>  <∆G_unbound>  (439) 
0.440736

>  <∆G_bound>  (439) 
-7.596512

>  <regarded>  (439) 
mArh-5fud_B_0_B_α,6FX7_0_A_β

>  <ref_pdb>  (439) 
nan

>  <smiles>  (439) 
O=S([O-])(CCN1CCOCC1)=N[PH]([O-])(O)O

>  <submitter_email>  (439) 
nan

>  <disregarded>  (439) 


>  <LE>  (439) 
-0.502328

>  <submitter_institution>  (439) 
nan

>  <ref_mols>  (439) 
mArh-5fud_B_0_B,6FX7_0_A

>  <N_constrained_atoms>  (439) 
16.0

>  <ref_url>  (439) 
nan

>  <method>  (439) 
nan

>  <comRMSD>  (439) 
0.704035

>  <N_unconstrained_atoms>  (439) 
0.0

>  <∆∆G>  (439) 
-8.037248

>  <runtime>  (439) 
38.948051

>  <generation_date>  (439) 
nan

$$$$
mArh-EU0056_0_A_α-5CB5_0_Q_β
     RDKit          3D

 23 23  0  0  0  0  0  0  0  0999 V2000
   -8.0400   13.7020    4.1330 N   0  0  0  0  0  0  0  0  0  0  0  0
   -8.2470   14.8950    3.3400 C   0  0  0  0  0  0  0  0  0  0  0  0
   -7.4880   14.7570    2.0420 C   0  0  0  0  0  0  0  0  0  0  0  0
   -8.2000   14.6310    0.8610 C   0  0  0  0  0  0  0  0  0  0  0  0
   -6.1180   14.7630    2.0430 C   0  0  0  0  0  0  0  0  0  0  0  0
   -7.4880   14.5190   -0.2730 N   0  0  0  0  0  0  0  0  0  0  0  0
   -5.4140   14.6400    0.8350 C   0  0  0  0  0  0  0  0  0  0  0  0
   -4.0460   14.6480    0.8930 O   0  0  0  0  0  0  0  0  0  0  0  0
   -6.1520   14.5210   -0.3090 C   0  0  0  0  0  0  0  0  0  0  0  0
   -3.0460   15.3120    0.2290 C   0  0  0  0  0  0  0  0  0  0  0  0
   -2.5260   14.8220   -1.0920 C   0  0  0  0  0  0  0  0  0  0  0  0
   -1.9260   15.9760   -1.8660 C   0  0  0  0  0  0  0  0  0  0  0  0
   -1.5140   15.7650   -3.3050 C   0  0  0  0  0  0  0  0  0  0  0  0
   -2.4150   16.4560   -4.3120 C   0  0  0  0  0  0  0  0  0  0  0  0
   -2.0860   17.8000   -4.6580 O   0  0  0  0  0  0  0  0  0  0  0  0
   -1.4990   17.8910   -6.0730 P   0  0  0  0  0  0  0  0  0  0  0  0
   -1.1130   19.4450   -6.1920 O   0  0  0  0  0  0  0  0  0  0  0  0
   -0.3520   16.7830   -5.5810 O   0  0  0  0  0  0  0  0  0  0  0  0
   -2.8930   17.3330   -6.7440 O   0  0  0  0  0  0  0  0  0  0  0  0
   -0.8500   19.7540   -7.7950 P   0  0  0  0  0  0  0  0  0  0  0  0
   -1.7480   20.9840   -8.5010 O   0  0  0  0  0  0  0  0  0  0  0  0
    0.2440   20.7840   -7.5190 O   0  0  0  0  0  0  0  0  0  0  0  0
    0.0870   18.8290   -8.7240 O   0  0  0  0  0  0  0  0  0  0  0  0
  1  2  1  0
  2  3  1  0
  3  4  2  0
  3  5  1  0
  4  6  1  0
  5  7  2  0
  7  8  1  0
  6  9  2  0
  7  9  1  0
  8 10  1  0
 10 11  1  0
 11 12  1  0
 12 13  1  0
 13 14  1  0
 14 15  1  0
 15 16  1  0
 16 17  1  0
 16 18  1  0
 16 19  1  0
 17 20  1  0
 20 21  1  0
 20 22  1  0
 20 23  1  0
M  CHG  2  19  -1  22  -1
M  END
>  <%Rank>  (440) 
33.51145

>  <N_hits>  (440) 
2

>  <submitter_name>  (440) 
nan

>  <original SMILES>  (440) 
nan

>  <∆G_unbound>  (440) 
0.554874

>  <∆G_bound>  (440) 
-10.362653

>  <regarded>  (440) 
mArh-EU0056_0_A_α,5CB5_0_Q_β

>  <ref_pdb>  (440) 
nan

>  <smiles>  (440) 
NCc1cncc(OCCCCCO[PH]([O-])(O)O[PH]([O-])(O)O)c1

>  <submitter_email>  (440) 
nan

>  <disregarded>  (440) 


>  <LE>  (440) 
-0.474675

>  <submitter_institution>  (440) 
nan

>  <ref_mols>  (440) 
mArh-EU0056_0_A,5CB5_0_Q

>  <N_constrained_atoms>  (440) 
18.0

>  <ref_url>  (440) 
nan

>  <method>  (440) 
nan

>  <comRMSD>  (440) 
0.596797

>  <N_unconstrained_atoms>  (440) 
5.0

>  <∆∆G>  (440) 
-10.917527

>  <runtime>  (440) 
50.299287

>  <generation_date>  (440) 
nan

$$$$
mArh-5cms_I_8_I_β-2FAV_0_B_α
     RDKit          3D

 16 16  0  0  0  0  0  0  0  0999 V2000
   -1.3890   21.4800   -8.3430 O   0  0  0  0  0  0  0  0  0  0  0  0
   -0.6930   20.1290   -7.7610 P   0  0  2  0  0  0  0  0  0  0  0  0
   -1.5900   19.6370   -6.5600 O   0  0  0  0  0  0  0  0  0  0  0  0
   -2.8300   21.6860   -8.2510 C   0  0  1  0  0  0  0  0  0  0  0  0
    0.7600   20.1760   -7.4470 O   0  0  0  0  0  0  0  0  0  0  0  0
   -0.9480   18.9480   -8.8100 O   0  0  0  0  0  0  0  0  0  0  0  0
   -3.3590   20.8540   -7.2020 O   0  0  0  0  0  0  0  0  0  0  0  0
   -3.3480   23.1350   -7.9270 C   0  0  1  0  0  0  0  0  0  0  0  0
   -1.7530   18.1320   -6.1470 P   0  0  0  0  0  0  0  0  0  0  0  0
   -3.8470   23.8940   -9.0340 O   0  0  0  0  0  0  0  0  0  0  0  0
   -4.1130   21.6590   -6.2830 C   0  0  0  0  0  0  0  0  0  0  0  0
   -4.5710   22.8500   -7.0630 C   0  0  1  0  0  0  0  0  0  0  0  0
   -0.2850   17.5180   -6.2690 O   0  0  0  0  0  0  0  0  0  0  0  0
   -2.7710   17.3130   -6.8080 O   0  0  0  0  0  0  0  0  0  0  0  0
   -1.8780   18.1630   -4.5770 O   0  0  0  0  0  0  0  0  0  0  0  0
   -5.0050   23.9370   -6.2420 O   0  0  0  0  0  0  0  0  0  0  0  0
  1  2  1  0
  2  3  1  0
  4  1  1  1
  2  5  2  0
  2  6  1  6
  4  7  1  0
  4  8  1  0
  3  9  1  0
  8 10  1  6
  7 11  1  0
  8 12  1  0
 11 12  1  0
  9 13  1  0
  9 14  2  0
  9 15  1  0
 12 16  1  1
M  END
>  <%Rank>  (441) 
33.587786

>  <N_hits>  (441) 
2

>  <submitter_name>  (441) 
nan

>  <original SMILES>  (441) 
nan

>  <∆G_unbound>  (441) 
1.529875

>  <∆G_bound>  (441) 
-9.995471

>  <regarded>  (441) 
mArh-5cms_I_8_I_β,2FAV_0_B_α

>  <ref_pdb>  (441) 
nan

>  <smiles>  (441) 
O=P(O)(O)OP(=O)(O)OC1OCC(O)C1O

>  <submitter_email>  (441) 
nan

>  <disregarded>  (441) 


>  <LE>  (441) 
-0.720334

>  <submitter_institution>  (441) 
nan

>  <ref_mols>  (441) 
mArh-5cms_I_8_I,2FAV_0_B

>  <N_constrained_atoms>  (441) 
16.0

>  <ref_url>  (441) 
nan

>  <method>  (441) 
nan

>  <comRMSD>  (441) 
0.815436

>  <N_unconstrained_atoms>  (441) 
0.0

>  <∆∆G>  (441) 
-11.525347

>  <runtime>  (441) 
42.431652

>  <generation_date>  (441) 
nan

$$$$
mArh-3q6z_0_A_γ-mArh-5cb5_H_0_H_β
     RDKit          3D

 16 16  0  0  0  0  0  0  0  0999 V2000
   -1.3900   12.7210   -4.6010 O   0  0  0  0  0  0  0  0  0  0  0  0
   -0.3440   13.4220   -3.9500 C   0  0  2  0  0  0  0  0  0  0  0  0
   -0.8330   14.3630   -2.8330 C   0  0  0  0  0  0  0  0  0  0  0  0
    0.4040   14.3700   -4.8780 C   0  0  2  0  0  0  0  0  0  0  0  0
    1.7230   14.4330   -4.3150 O   0  0  0  0  0  0  0  0  0  0  0  0
   -0.4500   15.6990   -3.2180 O   0  0  0  0  0  0  0  0  0  0  0  0
   -0.4340   15.6300   -4.6520 C   0  0  1  0  0  0  0  0  0  0  0  0
    0.0200   16.9620   -5.2640 C   0  0  0  0  0  0  0  0  0  0  0  0
   -1.3240   18.0430   -5.8810 P   0  0  1  0  0  0  0  0  0  0  0  0
   -0.7260   19.3870   -6.4330 O   0  0  0  0  0  0  0  0  0  0  0  0
   -2.3620   17.4160   -6.7710 O   0  0  0  0  0  0  0  0  0  0  0  0
   -1.9820   18.6260   -4.5660 O   0  0  0  0  0  0  0  0  0  0  0  0
   -0.1450   19.9240   -7.7730 P   0  0  0  0  0  0  0  0  0  0  0  0
   -1.4180   20.6180   -8.4210 O   0  0  0  0  0  0  0  0  0  0  0  0
    1.0510   20.8100   -7.6660 O   0  0  0  0  0  0  0  0  0  0  0  0
   -0.0040   18.6760   -8.7660 O   0  0  0  0  0  0  0  0  0  0  0  0
  2  1  1  6
  2  3  1  0
  2  4  1  0
  4  5  1  1
  3  6  1  0
  4  7  1  0
  6  7  1  0
  7  8  1  6
  8  9  1  0
  9 10  1  0
  9 11  2  0
  9 12  1  1
 10 13  1  0
 13 14  1  0
 13 15  2  0
 13 16  1  0
M  END
>  <%Rank>  (442) 
33.664122

>  <N_hits>  (442) 
2

>  <submitter_name>  (442) 
nan

>  <original SMILES>  (442) 
nan

>  <∆G_unbound>  (442) 
1.057928

>  <∆G_bound>  (442) 
-9.695195

>  <regarded>  (442) 
mArh-3q6z_0_A_γ,mArh-5cb5_H_0_H_β

>  <ref_pdb>  (442) 
nan

>  <smiles>  (442) 
O=P(O)(O)OP(=O)(O)CC1OCC(O)C1O

>  <submitter_email>  (442) 
nan

>  <disregarded>  (442) 


>  <LE>  (442) 
-0.67207

>  <submitter_institution>  (442) 
nan

>  <ref_mols>  (442) 
mArh-3q6z_0_A,mArh-5cb5_H_0_H

>  <N_constrained_atoms>  (442) 
16.0

>  <ref_url>  (442) 
nan

>  <method>  (442) 
nan

>  <comRMSD>  (442) 
0.791658

>  <N_unconstrained_atoms>  (442) 
0.0

>  <∆∆G>  (442) 
-10.753123

>  <runtime>  (442) 
31.668791

>  <generation_date>  (442) 
nan

$$$$
5CB5_0_Q_δ-4IQY_0_B_β
     RDKit          3D

 21 22  0  0  0  0  0  0  0  0999 V2000
   -3.7560   15.3320    1.5450 N   0  0  0  0  0  0  0  0  0  0  0  0
   -2.5990   14.7430    0.8760 C   0  0  1  0  0  0  0  0  0  0  0  0
   -2.4570   15.4250   -0.4290 C   0  0  1  0  0  0  0  0  0  0  0  0
   -1.4450   15.1140    1.6160 N   0  0  0  0  0  0  0  0  0  0  0  0
   -1.1310   15.1560   -1.0560 C   0  0  2  0  0  0  0  0  0  0  0  0
   -3.4250   15.0450   -1.3980 N   0  0  0  0  0  0  0  0  0  0  0  0
   -0.1970   14.6690    1.0820 C   0  0  0  0  0  0  0  0  0  0  0  0
   -1.3390   14.6360   -2.3290 N   0  0  0  0  0  0  0  0  0  0  0  0
   -2.7480   14.6880   -2.6460 C   0  0  2  0  0  0  0  0  0  0  0  0
   -0.4280   14.1440   -0.2590 N   0  0  0  0  0  0  0  0  0  0  0  0
   -3.0140   15.6810   -3.7170 C   0  0  0  0  0  0  0  0  0  0  0  0
   -1.7970   16.4610   -4.0930 C   0  0  0  0  0  0  0  0  0  0  0  0
   -2.0570   17.7910   -4.2870 O   0  0  0  0  0  0  0  0  0  0  0  0
   -1.6840   18.1410   -5.8590 P   0  0  0  0  0  0  0  0  0  0  0  0
   -0.9080   19.3670   -6.3760 O   0  0  0  0  0  0  0  0  0  0  0  0
   -0.6410   17.1090   -5.9320 O   0  0  0  0  0  0  0  0  0  0  0  0
   -2.7370   17.2620   -6.8810 O   0  0  0  0  0  0  0  0  0  0  0  0
   -0.7830   19.7040   -7.9080 P   0  0  0  0  0  0  0  0  0  0  0  0
   -1.6190   20.8790   -8.6440 O   0  0  0  0  0  0  0  0  0  0  0  0
    0.4770   20.5480   -7.7600 O   0  0  0  0  0  0  0  0  0  0  0  0
    0.1470   18.6710   -8.8400 O   0  0  0  0  0  0  0  0  0  0  0  0
  2  1  1  1
  2  3  1  0
  2  4  1  0
  3  5  1  0
  3  6  1  6
  4  7  1  0
  5  8  1  6
  6  9  1  0
  8  9  1  0
  5 10  1  0
  7 10  1  0
  9 11  1  6
 11 12  1  0
 12 13  1  0
 13 14  1  0
 14 15  1  0
 14 16  1  0
 14 17  1  0
 15 18  1  0
 18 19  1  0
 18 20  1  0
 18 21  1  0
M  CHG  1  20  -1
M  END
>  <%Rank>  (443) 
33.740458

>  <N_hits>  (443) 
2

>  <submitter_name>  (443) 
nan

>  <original SMILES>  (443) 
nan

>  <∆G_unbound>  (443) 
1.532713

>  <∆G_bound>  (443) 
-7.135274

>  <regarded>  (443) 
5CB5_0_Q_δ,4IQY_0_B_β

>  <ref_pdb>  (443) 
nan

>  <smiles>  (443) 
NC1NCNC2NC(CCO[PH](O)(O)O[PH]([O-])(O)O)NC12

>  <submitter_email>  (443) 
nan

>  <disregarded>  (443) 


>  <LE>  (443) 
-0.412761

>  <submitter_institution>  (443) 
nan

>  <ref_mols>  (443) 
5CB5_0_Q,4IQY_0_B

>  <N_constrained_atoms>  (443) 
19.0

>  <ref_url>  (443) 
nan

>  <method>  (443) 
nan

>  <comRMSD>  (443) 
0.674043

>  <N_unconstrained_atoms>  (443) 
2.0

>  <∆∆G>  (443) 
-8.667986

>  <runtime>  (443) 
31.113192

>  <generation_date>  (443) 
nan

$$$$
5CB5_0_Q_β-5DUS_0_A_δ
     RDKit          3D

 22 23  0  0  0  0  0  0  0  0999 V2000
   -1.3020   20.5100   -8.7000 O   0  0  0  0  0  0  0  0  0  0  0  0
   -0.3250   19.9200   -7.7160 P   0  0  0  0  0  0  0  0  0  0  0  0
   -1.3030   19.8220   -6.5000 O   0  0  0  0  0  0  0  0  0  0  0  0
    0.6990   21.1960   -7.8580 O   0  0  0  0  0  0  0  0  0  0  0  0
   -0.0750   18.6120   -8.7650 O   0  0  0  0  0  0  0  0  0  0  0  0
   -1.9060   18.4500   -5.9050 P   0  0  0  0  0  0  0  0  0  0  0  0
   -0.6830   17.5810   -6.0980 O   0  0  0  0  0  0  0  0  0  0  0  0
   -2.7490   17.4100   -6.8850 O   0  0  0  0  0  0  0  0  0  0  0  0
   -1.9380   18.1880   -4.3380 O   0  0  0  0  0  0  0  0  0  0  0  0
   -0.1300   16.9070   -5.0250 C   0  0  0  0  0  0  0  0  0  0  0  0
   -1.0150   15.8140   -4.4580 C   0  0  0  0  0  0  0  0  0  0  0  0
   -0.6640   15.5690   -2.9910 C   0  0  0  0  0  0  0  0  0  0  0  0
   -1.5740   14.7270   -2.2800 N   0  0  0  0  0  0  0  0  0  0  0  0
   -1.3410   14.4910   -0.9040 C   0  0  2  0  0  0  0  0  0  0  0  0
   -2.9630   15.0970   -2.3370 C   0  0  0  0  0  0  0  0  0  0  0  0
   -2.2440   15.5140   -0.3160 C   0  0  1  0  0  0  0  0  0  0  0  0
   -3.4630   15.1690   -0.9580 N   0  0  0  0  0  0  0  0  0  0  0  0
   -0.0330   14.6340   -0.3530 N   0  0  0  0  0  0  0  0  0  0  0  0
   -0.1450   14.2880    1.0660 C   0  0  0  0  0  0  0  0  0  0  0  0
   -2.2070   15.4120    1.1500 C   0  0  1  0  0  0  0  0  0  0  0  0
   -3.4730   15.4960    1.8040 N   0  0  0  0  0  0  0  0  0  0  0  0
   -1.5090   14.2030    1.4890 N   0  0  0  0  0  0  0  0  0  0  0  0
  1  2  1  0
  2  3  1  0
  2  4  1  0
  2  5  1  0
  3  6  1  0
  6  7  1  0
  6  8  1  0
  6  9  1  0
  7 10  1  0
 10 11  1  0
 11 12  1  0
 12 13  1  0
 13 14  1  0
 13 15  1  0
 14 16  1  0
 15 17  1  0
 16 17  1  6
 14 18  1  6
 18 19  1  0
 16 20  1  0
 20 21  1  6
 19 22  1  0
 20 22  1  0
M  CHG  2   4  -1   8  -1
M  END
>  <%Rank>  (444) 
33.816794

>  <N_hits>  (444) 
2

>  <submitter_name>  (444) 
nan

>  <original SMILES>  (444) 
nan

>  <∆G_unbound>  (444) 
2.048405

>  <∆G_bound>  (444) 
-7.764886

>  <regarded>  (444) 
5CB5_0_Q_β,5DUS_0_A_δ

>  <ref_pdb>  (444) 
nan

>  <smiles>  (444) 
NC1NCNC2C1NCN2CCCO[PH]([O-])(O)O[PH]([O-])(O)O

>  <submitter_email>  (444) 
nan

>  <disregarded>  (444) 


>  <LE>  (444) 
-0.446059

>  <submitter_institution>  (444) 
nan

>  <ref_mols>  (444) 
5CB5_0_Q,5DUS_0_A

>  <N_constrained_atoms>  (444) 
19.0

>  <ref_url>  (444) 
nan

>  <method>  (444) 
nan

>  <comRMSD>  (444) 
0.664498

>  <N_unconstrained_atoms>  (444) 
3.0

>  <∆∆G>  (444) 
-9.813292

>  <runtime>  (444) 
31.877691

>  <generation_date>  (444) 
nan

$$$$
mArh-EU0056_0_A_α-mArh-5cms_L_11_L_γ
     RDKit          3D

 21 22  0  0  0  0  0  0  0  0999 V2000
   -8.2490   13.8060    4.3350 N   0  0  0  0  0  0  0  0  0  0  0  0
   -8.4370   14.9370    3.4390 C   0  0  0  0  0  0  0  0  0  0  0  0
   -7.7050   14.7360    2.1480 C   0  0  0  0  0  0  0  0  0  0  0  0
   -8.3730   14.5000    0.9530 C   0  0  0  0  0  0  0  0  0  0  0  0
   -6.3100   14.7810    2.0960 C   0  0  0  0  0  0  0  0  0  0  0  0
   -7.7620   14.3140   -0.2380 N   0  0  0  0  0  0  0  0  0  0  0  0
   -5.6530   14.5930    0.8940 C   0  0  0  0  0  0  0  0  0  0  0  0
   -4.3030   14.6560    0.9280 O   0  0  0  0  0  0  0  0  0  0  0  0
   -6.4100   14.3640   -0.2390 C   0  0  0  0  0  0  0  0  0  0  0  0
   -3.8560   15.8120    0.2800 C   0  0  0  0  0  0  0  0  0  0  0  0
   -3.7080   15.4870   -1.2090 C   0  0  0  0  0  0  0  0  0  0  0  0
   -2.3870   14.8030   -1.5080 C   0  0  0  0  0  0  0  0  0  0  0  0
   -1.8710   14.8330   -2.9530 C   0  0  0  0  0  0  0  0  0  0  0  0
   -0.3290   14.7390   -3.0170 C   0  0  2  0  0  0  0  0  0  0  0  0
    0.1280   15.9900   -3.5440 O   0  0  0  0  0  0  0  0  0  0  0  0
    0.3180   13.7330   -3.9700 C   0  0  1  0  0  0  0  0  0  0  0  0
   -0.1670   12.4020   -3.9680 O   0  0  0  0  0  0  0  0  0  0  0  0
   -0.0570   15.8870   -4.9610 C   0  0  2  0  0  0  0  0  0  0  0  0
    0.1400   14.3910   -5.3220 C   0  0  1  0  0  0  0  0  0  0  0  0
    0.8280   16.9310   -5.6140 C   0  0  0  0  0  0  0  0  0  0  0  0
    1.2510   14.0630   -6.1160 O   0  0  0  0  0  0  0  0  0  0  0  0
  1  2  1  0
  2  3  1  0
  3  4  2  0
  3  5  1  0
  4  6  1  0
  5  7  2  0
  7  8  1  0
  6  9  2  0
  7  9  1  0
  8 10  1  0
 10 11  1  0
 11 12  1  0
 12 13  1  0
 14 13  1  6
 14 15  1  0
 14 16  1  0
 16 17  1  6
 15 18  1  0
 16 19  1  0
 18 19  1  0
 18 20  1  6
 19 21  1  6
M  END
>  <%Rank>  (445) 
33.89313

>  <N_hits>  (445) 
2

>  <submitter_name>  (445) 
nan

>  <original SMILES>  (445) 
nan

>  <∆G_unbound>  (445) 
0.51592

>  <∆G_bound>  (445) 
-5.289656

>  <regarded>  (445) 
mArh-EU0056_0_A_α,mArh-5cms_L_11_L_γ

>  <ref_pdb>  (445) 
nan

>  <smiles>  (445) 
CC1OC(CCCCOc2cncc(CN)c2)C(O)C1O

>  <submitter_email>  (445) 
nan

>  <disregarded>  (445) 


>  <LE>  (445) 
-0.276456

>  <submitter_institution>  (445) 
nan

>  <ref_mols>  (445) 
mArh-EU0056_0_A,mArh-5cms_L_11_L

>  <N_constrained_atoms>  (445) 
17.0

>  <ref_url>  (445) 
nan

>  <method>  (445) 
nan

>  <comRMSD>  (445) 
0.500592

>  <N_unconstrained_atoms>  (445) 
4.0

>  <∆∆G>  (445) 
-5.805577

>  <runtime>  (445) 
37.142959

>  <generation_date>  (445) 
nan

$$$$
mArh-5cb5_H_0_H_γ-mArh-5cms_C_2_C_β
     RDKit          3D

 16 16  0  0  0  0  0  0  0  0999 V2000
   -1.5310   12.5580   -3.8190 O   0  0  0  0  0  0  0  0  0  0  0  0
   -0.4630   13.4760   -3.7750 C   0  0  2  0  0  0  0  0  0  0  0  0
   -0.5570   14.4700   -2.6160 C   0  0  0  0  0  0  0  0  0  0  0  0
   -0.4020   14.3490   -5.0160 C   0  0  2  0  0  0  0  0  0  0  0  0
    0.9440   14.2390   -5.4880 O   0  0  0  0  0  0  0  0  0  0  0  0
   -0.1310   15.7290   -3.1470 O   0  0  0  0  0  0  0  0  0  0  0  0
   -0.7280   15.7360   -4.4470 C   0  0  1  0  0  0  0  0  0  0  0  0
   -0.2130   16.9310   -5.2160 C   0  0  0  0  0  0  0  0  0  0  0  0
   -1.4840   18.0290   -5.8710 P   0  0  1  0  0  0  0  0  0  0  0  0
   -0.6910   19.2430   -6.4400 O   0  0  0  0  0  0  0  0  0  0  0  0
   -2.5020   17.3960   -6.7740 O   0  0  0  0  0  0  0  0  0  0  0  0
   -2.1560   18.7830   -4.6400 O   0  0  0  0  0  0  0  0  0  0  0  0
   -0.2360   19.7840   -7.8130 P   0  0  0  0  0  0  0  0  0  0  0  0
   -1.5760   20.3950   -8.3970 O   0  0  0  0  0  0  0  0  0  0  0  0
    0.8890   20.7370   -7.7970 O   0  0  0  0  0  0  0  0  0  0  0  0
   -0.0320   18.5120   -8.7660 O   0  0  0  0  0  0  0  0  0  0  0  0
  2  1  1  6
  2  3  1  0
  2  4  1  0
  4  5  1  1
  3  6  1  0
  4  7  1  0
  6  7  1  0
  7  8  1  6
  8  9  1  0
  9 10  1  0
  9 11  2  0
  9 12  1  1
 10 13  1  0
 13 14  1  0
 13 15  2  0
 13 16  1  0
M  END
>  <%Rank>  (446) 
33.969466

>  <N_hits>  (446) 
2

>  <submitter_name>  (446) 
nan

>  <original SMILES>  (446) 
nan

>  <∆G_unbound>  (446) 
1.057928

>  <∆G_bound>  (446) 
-8.921281

>  <regarded>  (446) 
mArh-5cb5_H_0_H_γ,mArh-5cms_C_2_C_β

>  <ref_pdb>  (446) 
nan

>  <smiles>  (446) 
O=P(O)(O)OP(=O)(O)CC1OCC(O)C1O

>  <submitter_email>  (446) 
nan

>  <disregarded>  (446) 


>  <LE>  (446) 
-0.623701

>  <submitter_institution>  (446) 
nan

>  <ref_mols>  (446) 
mArh-5cb5_H_0_H,mArh-5cms_C_2_C

>  <N_constrained_atoms>  (446) 
16.0

>  <ref_url>  (446) 
nan

>  <method>  (446) 
nan

>  <comRMSD>  (446) 
0.769372

>  <N_unconstrained_atoms>  (446) 
0.0

>  <∆∆G>  (446) 
-9.979209

>  <runtime>  (446) 
34.672718

>  <generation_date>  (446) 
nan

$$$$
mArh-x1015_0_A_α-5L9K_0_B_β
     RDKit          3D

 27 28  0  0  0  0  0  0  0  0999 V2000
   -1.5120   14.0720   -3.5400 C   0  0  0  0  0  0  0  0  0  0  0  0
   -0.1850   13.6160   -3.9430 C   0  0  2  0  0  0  0  0  0  0  0  0
    0.0460   12.1500   -4.1060 N   0  0  0  0  0  0  0  0  0  0  0  0
    0.8140   13.7470   -2.7530 C   0  0  0  0  0  0  0  0  0  0  0  0
    1.6680   14.5500   -2.7610 N   0  0  0  0  0  0  0  0  0  0  0  0
    0.2920   11.6110   -2.7500 C   0  0  0  0  0  0  0  0  0  0  0  0
    0.3740   12.7450   -1.8620 N   0  0  0  0  0  0  0  0  0  0  0  0
   -0.3690   11.3510   -5.1480 C   0  0  0  0  0  0  0  0  0  0  0  0
    0.3760   10.4040   -2.4910 O   0  0  0  0  0  0  0  0  0  0  0  0
    1.8610   15.4350   -3.9500 C   0  0  0  0  0  0  0  0  0  0  0  0
   -0.0810   11.6260   -6.4540 C   0  0  0  0  0  0  0  0  0  0  0  0
   -1.1240   10.1990   -4.9450 C   0  0  0  0  0  0  0  0  0  0  0  0
    0.6170   16.2990   -3.8900 C   0  0  0  0  0  0  0  0  0  0  0  0
   -0.4820   10.8640   -7.5310 C   0  0  0  0  0  0  0  0  0  0  0  0
   -1.5480    9.4110   -5.9990 C   0  0  0  0  0  0  0  0  0  0  0  0
    0.2050   17.3240   -4.8050 C   0  0  0  0  0  0  0  0  0  0  0  0
   -1.2250    9.7440   -7.3180 C   0  0  0  0  0  0  0  0  0  0  0  0
   -1.7730    8.7370   -8.6190 Cl  0  0  0  0  0  0  0  0  0  0  0  0
   -0.7650   16.8940   -5.7010 O   0  0  0  0  0  0  0  0  0  0  0  0
   -1.8280   18.1920   -5.9660 P   0  0  0  0  0  0  0  0  0  0  0  0
   -0.8470   19.1180   -6.5220 O   0  0  0  0  0  0  0  0  0  0  0  0
   -2.1070   19.1850   -4.6710 O   0  0  0  0  0  0  0  0  0  0  0  0
   -2.8510   18.1360   -7.1270 O   0  0  0  0  0  0  0  0  0  0  0  0
   -0.7590   19.8770   -7.8780 P   0  0  0  0  0  0  0  0  0  0  0  0
   -2.3090   20.4810   -7.7230 O   0  0  0  0  0  0  0  0  0  0  0  0
   -0.4870   18.4170   -8.6060 O   0  0  0  0  0  0  0  0  0  0  0  0
    0.4450   20.8390   -7.5420 O   0  0  0  0  0  0  0  0  0  0  0  0
  2  1  1  1
  2  3  1  0
  2  4  1  0
  4  5  2  3
  3  6  1  0
  4  7  1  0
  6  7  1  0
  3  8  1  0
  6  9  2  0
  5 10  1  0
  8 11  2  0
  8 12  1  0
 10 13  1  0
 11 14  1  0
 12 15  2  0
 13 16  1  0
 14 17  2  0
 15 17  1  0
 17 18  1  0
 16 19  1  0
 19 20  1  0
 20 21  1  0
 20 22  1  0
 20 23  1  0
 21 24  1  0
 24 25  1  0
 24 26  1  0
 24 27  1  0
M  CHG  2  22  -1  26  -1
M  END
>  <%Rank>  (447) 
34.045802

>  <N_hits>  (447) 
2

>  <submitter_name>  (447) 
nan

>  <original SMILES>  (447) 
nan

>  <∆G_unbound>  (447) 
1.43531

>  <∆G_bound>  (447) 
-9.553058

>  <regarded>  (447) 
mArh-x1015_0_A_α,5L9K_0_B_β

>  <ref_pdb>  (447) 
nan

>  <smiles>  (447) 
CC1C(=NCCCO[PH]([O-])(O)O[PH]([O-])(O)O)NC(=O)N1c1ccc(Cl)cc1

>  <submitter_email>  (447) 
nan

>  <disregarded>  (447) 


>  <LE>  (447) 
-0.406977

>  <submitter_institution>  (447) 
nan

>  <ref_mols>  (447) 
mArh-x1015_0_A,5L9K_0_B

>  <N_constrained_atoms>  (447) 
24.0

>  <ref_url>  (447) 
nan

>  <method>  (447) 
nan

>  <comRMSD>  (447) 
0.75011

>  <N_unconstrained_atoms>  (447) 
3.0

>  <∆∆G>  (447) 
-10.988368

>  <runtime>  (447) 
47.123767

>  <generation_date>  (447) 
nan

$$$$
mArh-5cms_O_14_O_α-5CMS_0_Q_γ
     RDKit          3D

 22 23  0  0  0  0  0  0  0  0999 V2000
    1.1960   23.0160   -9.9960 C   0  0  0  0  0  0  0  0  0  0  0  0
   -0.2520   23.2290   -9.6730 C   0  0  2  0  0  0  0  0  0  0  0  0
   -1.0150   22.0570   -9.9220 O   0  0  0  0  0  0  0  0  0  0  0  0
   -0.9790   24.3250  -10.4560 C   0  0  1  0  0  0  0  0  0  0  0  0
   -0.2270   24.8090  -11.5560 O   0  0  0  0  0  0  0  0  0  0  0  0
   -2.2390   22.6960   -9.6820 C   0  0  1  0  0  0  0  0  0  0  0  0
   -2.2640   23.5970  -10.8890 C   0  0  1  0  0  0  0  0  0  0  0  0
   -3.2860   21.8130   -9.3980 O   0  0  0  0  0  0  0  0  0  0  0  0
   -3.4000   24.4460  -11.0760 O   0  0  0  0  0  0  0  0  0  0  0  0
   -3.0830   21.4970   -8.0000 C   0  0  0  0  0  0  0  0  0  0  0  0
   -1.7630   20.7410   -7.7040 C   0  0  0  0  0  0  0  0  0  0  0  0
   -1.8260   19.7330   -6.5260 C   0  0  0  0  0  0  0  0  0  0  0  0
   -0.5080   18.9290   -6.4100 C   0  0  0  0  0  0  0  0  0  0  0  0
   -0.3070   18.1220   -5.0970 C   0  0  0  0  0  0  0  0  0  0  0  0
   -0.1430   16.6430   -5.4460 C   0  0  0  0  0  0  0  0  0  0  0  0
    0.4880   15.6270   -4.4780 C   0  0  1  0  0  0  0  0  0  0  0  0
   -0.2250   15.6350   -3.2140 O   0  0  0  0  0  0  0  0  0  0  0  0
    0.3350   14.1830   -4.9960 C   0  0  1  0  0  0  0  0  0  0  0  0
    1.2560   13.2080   -4.5370 O   0  0  0  0  0  0  0  0  0  0  0  0
   -1.0030   14.4300   -3.1190 C   0  0  0  0  0  0  0  0  0  0  0  0
   -1.0670   13.8600   -4.5260 C   0  0  2  0  0  0  0  0  0  0  0  0
   -1.3120   12.4680   -4.6010 O   0  0  0  0  0  0  0  0  0  0  0  0
  2  1  1  6
  2  3  1  0
  2  4  1  0
  4  5  1  6
  3  6  1  0
  4  7  1  0
  6  7  1  0
  6  8  1  6
  7  9  1  1
  8 10  1  0
 10 11  1  0
 11 12  1  0
 12 13  1  0
 13 14  1  0
 14 15  1  0
 16 15  1  6
 16 17  1  0
 16 18  1  0
 18 19  1  1
 17 20  1  0
 18 21  1  0
 20 21  1  0
 21 22  1  1
M  END
>  <%Rank>  (448) 
34.122137

>  <N_hits>  (448) 
2

>  <submitter_name>  (448) 
nan

>  <original SMILES>  (448) 
nan

>  <∆G_unbound>  (448) 
0.187336

>  <∆G_bound>  (448) 
-9.583945

>  <regarded>  (448) 
mArh-5cms_O_14_O_α,5CMS_0_Q_γ

>  <ref_pdb>  (448) 
nan

>  <smiles>  (448) 
CC1OC(OCCCCCCC2OCC(O)C2O)C(O)C1O

>  <submitter_email>  (448) 
nan

>  <disregarded>  (448) 


>  <LE>  (448) 
-0.444149

>  <submitter_institution>  (448) 
nan

>  <ref_mols>  (448) 
mArh-5cms_O_14_O,5CMS_0_Q

>  <N_constrained_atoms>  (448) 
17.0

>  <ref_url>  (448) 
nan

>  <method>  (448) 
nan

>  <comRMSD>  (448) 
0.556184

>  <N_unconstrained_atoms>  (448) 
5.0

>  <∆∆G>  (448) 
-9.771281

>  <runtime>  (448) 
38.436293

>  <generation_date>  (448) 
nan

$$$$
5CB5_0_A_γ-mArh-5cms_I_8_I_β
     RDKit          3D

 16 16  0  0  0  0  0  0  0  0999 V2000
   -1.8010   12.9650   -4.1790 O   0  0  0  0  0  0  0  0  0  0  0  0
   -0.5610   13.6010   -3.9350 C   0  0  2  0  0  0  0  0  0  0  0  0
   -0.5890   14.5820   -2.7530 C   0  0  0  0  0  0  0  0  0  0  0  0
   -0.1150   14.4730   -5.0970 C   0  0  2  0  0  0  0  0  0  0  0  0
    1.3150   14.4010   -5.1110 O   0  0  0  0  0  0  0  0  0  0  0  0
   -0.1910   15.8650   -3.2710 O   0  0  0  0  0  0  0  0  0  0  0  0
   -0.6570   15.8170   -4.6240 C   0  0  1  0  0  0  0  0  0  0  0  0
   -0.2760   17.0900   -5.3770 C   0  0  0  0  0  0  0  0  0  0  0  0
   -1.7300   17.9940   -5.9590 P   0  0  1  0  0  0  0  0  0  0  0  0
   -1.3590   19.1690   -6.9180 O   0  0  0  0  0  0  0  0  0  0  0  0
   -2.7580   17.1280   -6.6030 O   0  0  0  0  0  0  0  0  0  0  0  0
   -2.2200   18.8370   -4.7000 O   0  0  0  0  0  0  0  0  0  0  0  0
   -0.0690   19.5370   -7.6640 P   0  0  0  0  0  0  0  0  0  0  0  0
   -0.4710   20.9410   -8.2590 O   0  0  0  0  0  0  0  0  0  0  0  0
    1.2100   19.4920   -6.9370 O   0  0  0  0  0  0  0  0  0  0  0  0
   -0.0830   18.5700   -8.9200 O   0  0  0  0  0  0  0  0  0  0  0  0
  2  1  1  6
  2  3  1  0
  2  4  1  0
  4  5  1  1
  3  6  1  0
  4  7  1  0
  6  7  1  0
  7  8  1  6
  8  9  1  0
  9 10  1  0
  9 11  2  0
  9 12  1  1
 10 13  1  0
 13 14  1  0
 13 15  2  0
 13 16  1  0
M  END
>  <%Rank>  (449) 
34.198473

>  <N_hits>  (449) 
2

>  <submitter_name>  (449) 
nan

>  <original SMILES>  (449) 
nan

>  <∆G_unbound>  (449) 
1.057928

>  <∆G_bound>  (449) 
-8.136977

>  <regarded>  (449) 
5CB5_0_A_γ,mArh-5cms_I_8_I_β

>  <ref_pdb>  (449) 
nan

>  <smiles>  (449) 
O=P(O)(O)OP(=O)(O)CC1OCC(O)C1O

>  <submitter_email>  (449) 
nan

>  <disregarded>  (449) 


>  <LE>  (449) 
-0.574682

>  <submitter_institution>  (449) 
nan

>  <ref_mols>  (449) 
5CB5_0_A,mArh-5cms_I_8_I

>  <N_constrained_atoms>  (449) 
16.0

>  <ref_url>  (449) 
nan

>  <method>  (449) 
nan

>  <comRMSD>  (449) 
0.746031

>  <N_unconstrained_atoms>  (449) 
0.0

>  <∆∆G>  (449) 
-9.194905

>  <runtime>  (449) 
60.987306

>  <generation_date>  (449) 
nan

$$$$
mArh-5cb5_P_0_P_α-mArh-5cb5_K_0_K_β
     RDKit          3D

 17 17  0  0  0  0  0  0  0  0999 V2000
   -1.7440   21.8870   -7.9470 C   0  0  0  0  0  0  0  0  0  0  0  0
   -0.6240   20.4690   -7.8370 P   0  0  2  0  0  0  0  0  0  0  0  0
   -0.9350   19.8000   -6.4340 O   0  0  0  0  0  0  0  0  0  0  0  0
   -3.1020   22.0010   -8.6630 C   0  0  1  0  0  0  0  0  0  0  0  0
    0.8110   20.8570   -7.8970 O   0  0  0  0  0  0  0  0  0  0  0  0
   -0.9650   19.2510   -8.8240 O   0  0  0  0  0  0  0  0  0  0  0  0
   -4.1090   21.2100   -8.0510 O   0  0  0  0  0  0  0  0  0  0  0  0
   -3.6550   23.4280   -8.4750 C   0  0  1  0  0  0  0  0  0  0  0  0
   -4.5820   23.8580   -9.4770 O   0  0  0  0  0  0  0  0  0  0  0  0
   -1.4950   18.3380   -6.2100 P   0  0  0  0  0  0  0  0  0  0  0  0
   -4.4930   21.8680   -6.8430 C   0  0  1  0  0  0  0  0  0  0  0  0
   -4.3100   23.3770   -7.0830 C   0  0  2  0  0  0  0  0  0  0  0  0
   -5.8230   21.5280   -6.4910 O   0  0  0  0  0  0  0  0  0  0  0  0
   -5.6060   24.0230   -7.0720 O   0  0  0  0  0  0  0  0  0  0  0  0
   -0.2210   17.3880   -6.2720 O   0  0  0  0  0  0  0  0  0  0  0  0
   -2.6210   17.8740   -7.0390 O   0  0  0  0  0  0  0  0  0  0  0  0
   -1.7840   18.2960   -4.6510 O   0  0  0  0  0  0  0  0  0  0  0  0
  1  2  1  0
  2  3  1  0
  4  1  1  1
  2  5  2  0
  2  6  1  6
  4  7  1  0
  4  8  1  0
  8  9  1  6
  3 10  1  0
  7 11  1  0
  8 12  1  0
 11 12  1  0
 11 13  1  6
 12 14  1  6
 10 15  1  0
 10 16  2  0
 10 17  1  0
M  END
>  <%Rank>  (450) 
34.274809

>  <N_hits>  (450) 
2

>  <submitter_name>  (450) 
nan

>  <original SMILES>  (450) 
nan

>  <∆G_unbound>  (450) 
1.703844

>  <∆G_bound>  (450) 
-12.865691

>  <regarded>  (450) 
mArh-5cb5_P_0_P_α,mArh-5cb5_K_0_K_β

>  <ref_pdb>  (450) 
nan

>  <smiles>  (450) 
O=P(O)(O)OP(=O)(O)CC1OC(O)C(O)C1O

>  <submitter_email>  (450) 
nan

>  <disregarded>  (450) 


>  <LE>  (450) 
-0.857031

>  <submitter_institution>  (450) 
nan

>  <ref_mols>  (450) 
mArh-5cb5_P_0_P,mArh-5cb5_K_0_K

>  <N_constrained_atoms>  (450) 
17.0

>  <ref_url>  (450) 
nan

>  <method>  (450) 
nan

>  <comRMSD>  (450) 
0.910885

>  <N_unconstrained_atoms>  (450) 
0.0

>  <∆∆G>  (450) 
-14.569535

>  <runtime>  (450) 
33.322828

>  <generation_date>  (450) 
nan

$$$$
mArh-EU0238_0_A_α-6WOJ_0_D_δ
     RDKit          3D

 13 14  0  0  0  0  0  0  0  0999 V2000
   -6.4110   14.3050    1.5720 C   0  0  0  0  0  0  0  0  0  0  0  0
   -7.6280   14.3920    0.7460 N   0  0  0  0  0  0  0  0  0  0  0  0
   -5.1620   14.5900    0.7340 C   0  0  0  0  0  0  0  0  0  0  0  0
   -5.2160   14.7920   -0.4780 O   0  0  0  0  0  0  0  0  0  0  0  0
   -4.0020   14.5920    1.4780 N   0  0  0  0  0  0  0  0  0  0  0  0
   -2.7740   14.5520    0.9340 C   0  0  0  0  0  0  0  0  0  0  0  0
   -2.6220   14.2040   -0.5120 C   0  0  2  0  0  0  0  0  0  0  0  0
   -1.6770   14.7880    1.6190 N   0  0  0  0  0  0  0  0  0  0  0  0
   -0.6730   14.7300    0.6620 C   0  0  0  0  0  0  0  0  0  0  0  0
   -1.1690   14.4470   -0.5500 C   0  0  0  0  0  0  0  0  0  0  0  0
   -3.0590   15.0730   -1.6020 N   0  0  0  0  0  0  0  0  0  0  0  0
   -0.7530   14.3040   -1.8550 N   0  0  0  0  0  0  0  0  0  0  0  0
   -2.0100   14.6710   -2.5760 C   0  0  0  0  0  0  0  0  0  0  0  0
  1  2  1  0
  1  3  1  0
  3  4  2  0
  3  5  1  0
  5  6  1  0
  6  7  1  0
  6  8  2  0
  8  9  1  0
  7 10  1  0
  9 10  2  0
  7 11  1  6
 10 12  1  0
 11 13  1  0
 12 13  1  0
M  END
>  <%Rank>  (451) 
34.351145

>  <N_hits>  (451) 
2

>  <submitter_name>  (451) 
nan

>  <original SMILES>  (451) 
nan

>  <∆G_unbound>  (451) 
0.869951

>  <∆G_bound>  (451) 
-2.922365

>  <regarded>  (451) 
mArh-EU0238_0_A_α,6WOJ_0_D_δ

>  <ref_pdb>  (451) 
nan

>  <smiles>  (451) 
NCC(=O)NC1=NC=C2NCNC21

>  <submitter_email>  (451) 
nan

>  <disregarded>  (451) 


>  <LE>  (451) 
-0.291717

>  <submitter_institution>  (451) 
nan

>  <ref_mols>  (451) 
mArh-EU0238_0_A,6WOJ_0_D

>  <N_constrained_atoms>  (451) 
13.0

>  <ref_url>  (451) 
nan

>  <method>  (451) 
nan

>  <comRMSD>  (451) 
0.530676

>  <N_unconstrained_atoms>  (451) 
0.0

>  <∆∆G>  (451) 
-3.792316

>  <runtime>  (451) 
27.159091

>  <generation_date>  (451) 
nan

$$$$
mArh-5cb5_A_0_A_β-5CB3_0_A_γ
     RDKit          3D

 16 16  0  0  0  0  0  0  0  0999 V2000
   -1.5860   20.4930   -8.4430 O   0  0  0  0  0  0  0  0  0  0  0  0
   -0.2610   19.8730   -7.8260 P   0  0  0  0  0  0  0  0  0  0  0  0
   -0.6540   19.3650   -6.3890 O   0  0  0  0  0  0  0  0  0  0  0  0
    0.8770   20.8170   -7.8220 O   0  0  0  0  0  0  0  0  0  0  0  0
   -0.0490   18.6050   -8.7730 O   0  0  0  0  0  0  0  0  0  0  0  0
   -1.4900   18.0860   -6.0210 P   0  0  2  0  0  0  0  0  0  0  0  0
   -0.4160   16.9200   -5.7210 O   0  0  0  0  0  0  0  0  0  0  0  0
   -2.6600   17.7730   -6.8780 O   0  0  0  0  0  0  0  0  0  0  0  0
   -1.8890   18.5440   -4.5500 O   0  0  0  0  0  0  0  0  0  0  0  0
   -0.7520   15.8780   -4.8060 C   0  0  2  0  0  0  0  0  0  0  0  0
   -0.1730   15.9800   -3.4930 O   0  0  0  0  0  0  0  0  0  0  0  0
   -0.3810   14.4350   -5.1800 C   0  0  1  0  0  0  0  0  0  0  0  0
    1.0140   14.0760   -5.0930 O   0  0  0  0  0  0  0  0  0  0  0  0
   -0.4980   14.7160   -2.8710 C   0  0  0  0  0  0  0  0  0  0  0  0
   -1.0530   13.8220   -3.9860 C   0  0  2  0  0  0  0  0  0  0  0  0
   -0.7180   12.4540   -3.8660 O   0  0  0  0  0  0  0  0  0  0  0  0
  1  2  1  0
  2  3  1  0
  2  4  2  0
  2  5  1  0
  3  6  1  0
  6  7  1  0
  6  8  2  0
  6  9  1  1
 10  7  1  6
 10 11  1  0
 10 12  1  0
 12 13  1  1
 11 14  1  0
 12 15  1  0
 14 15  1  0
 15 16  1  1
M  END
>  <%Rank>  (452) 
34.427481

>  <N_hits>  (452) 
2

>  <submitter_name>  (452) 
nan

>  <original SMILES>  (452) 
nan

>  <∆G_unbound>  (452) 
1.157846

>  <∆G_bound>  (452) 
-8.57261

>  <regarded>  (452) 
mArh-5cb5_A_0_A_β,5CB3_0_A_γ

>  <ref_pdb>  (452) 
nan

>  <smiles>  (452) 
O=P(O)(O)OP(=O)(O)OC1OCC(O)C1O

>  <submitter_email>  (452) 
nan

>  <disregarded>  (452) 


>  <LE>  (452) 
-0.608154

>  <submitter_institution>  (452) 
nan

>  <ref_mols>  (452) 
mArh-5cb5_A_0_A,5CB3_0_A

>  <N_constrained_atoms>  (452) 
16.0

>  <ref_url>  (452) 
nan

>  <method>  (452) 
nan

>  <comRMSD>  (452) 
0.764836

>  <N_unconstrained_atoms>  (452) 
0.0

>  <∆∆G>  (452) 
-9.730456

>  <runtime>  (452) 
25.252203

>  <generation_date>  (452) 
nan

$$$$
mArh-6woj_D_0_D_α-6MEA_0_A_γ
     RDKit          3D

 22 23  0  0  0  0  0  0  0  0999 V2000
   -2.2740   21.7710   -8.7980 C   0  0  0  0  0  0  0  0  0  0  0  0
   -2.4620   22.7290   -7.6770 C   0  0  2  0  0  0  0  0  0  0  0  0
   -2.8090   21.8100   -6.6650 O   0  0  0  0  0  0  0  0  0  0  0  0
   -3.5780   23.7800   -7.7830 C   0  0  1  0  0  0  0  0  0  0  0  0
   -4.0960   23.9380   -9.1120 O   0  0  0  0  0  0  0  0  0  0  0  0
   -3.9850   22.2250   -6.0310 C   0  0  1  0  0  0  0  0  0  0  0  0
   -4.6950   23.2610   -6.8980 C   0  0  1  0  0  0  0  0  0  0  0  0
   -4.7870   21.0990   -5.8900 O   0  0  0  0  0  0  0  0  0  0  0  0
   -5.3000   24.2900   -6.0980 O   0  0  0  0  0  0  0  0  0  0  0  0
   -4.3950   20.1980   -6.9100 C   0  0  0  0  0  0  0  0  0  0  0  0
   -2.9610   19.5920   -6.8700 C   0  0  0  0  0  0  0  0  0  0  0  0
   -2.1660   19.6170   -5.5640 C   0  0  0  0  0  0  0  0  0  0  0  0
   -1.6190   18.2000   -5.2630 C   0  0  0  0  0  0  0  0  0  0  0  0
   -0.1350   18.1390   -4.8520 C   0  0  0  0  0  0  0  0  0  0  0  0
    0.5670   16.8850   -5.3600 C   0  0  0  0  0  0  0  0  0  0  0  0
    0.8090   15.7140   -4.3890 C   0  0  1  0  0  0  0  0  0  0  0  0
    0.0420   15.8640   -3.1610 O   0  0  0  0  0  0  0  0  0  0  0  0
    0.3870   14.3610   -4.9790 C   0  0  1  0  0  0  0  0  0  0  0  0
    1.2520   13.2640   -4.7500 O   0  0  0  0  0  0  0  0  0  0  0  0
   -0.7140   14.6620   -2.9580 C   0  0  0  0  0  0  0  0  0  0  0  0
   -0.9730   14.1320   -4.3510 C   0  0  2  0  0  0  0  0  0  0  0  0
   -1.3220   12.7620   -4.4160 O   0  0  0  0  0  0  0  0  0  0  0  0
  2  1  1  6
  2  3  1  0
  2  4  1  0
  4  5  1  6
  3  6  1  0
  4  7  1  0
  6  7  1  0
  6  8  1  6
  7  9  1  1
  8 10  1  0
 10 11  1  0
 11 12  1  0
 12 13  1  0
 13 14  1  0
 14 15  1  0
 16 15  1  6
 16 17  1  0
 16 18  1  0
 18 19  1  1
 17 20  1  0
 18 21  1  0
 20 21  1  0
 21 22  1  1
M  END
>  <%Rank>  (453) 
34.503817

>  <N_hits>  (453) 
2

>  <submitter_name>  (453) 
nan

>  <original SMILES>  (453) 
nan

>  <∆G_unbound>  (453) 
0.187336

>  <∆G_bound>  (453) 
-10.04252

>  <regarded>  (453) 
mArh-6woj_D_0_D_α,6MEA_0_A_γ

>  <ref_pdb>  (453) 
nan

>  <smiles>  (453) 
CC1OC(OCCCCCCC2OCC(O)C2O)C(O)C1O

>  <submitter_email>  (453) 
nan

>  <disregarded>  (453) 


>  <LE>  (453) 
-0.464993

>  <submitter_institution>  (453) 
nan

>  <ref_mols>  (453) 
mArh-6woj_D_0_D,6MEA_0_A

>  <N_constrained_atoms>  (453) 
17.0

>  <ref_url>  (453) 
nan

>  <method>  (453) 
nan

>  <comRMSD>  (453) 
0.569543

>  <N_unconstrained_atoms>  (453) 
5.0

>  <∆∆G>  (453) 
-10.229855

>  <runtime>  (453) 
37.146008

>  <generation_date>  (453) 
nan

$$$$
5CB5_0_F_α-mArh-5cb5_K_0_K_β
     RDKit          3D

 20 20  0  0  0  0  0  0  0  0999 V2000
   -1.7110   21.8270   -8.1080 C   0  0  0  0  0  0  0  0  0  0  0  0
   -0.5390   20.4650   -7.8610 P   0  0  2  0  0  0  0  0  0  0  0  0
   -0.9600   19.8580   -6.4470 O   0  0  0  0  0  0  0  0  0  0  0  0
   -3.0120   21.7010   -8.9010 C   0  0  2  0  0  0  0  0  0  0  0  0
    0.8870   20.9000   -7.8040 O   0  0  0  0  0  0  0  0  0  0  0  0
   -0.7540   19.1880   -8.8130 O   0  0  0  0  0  0  0  0  0  0  0  0
   -3.7130   22.9740   -9.3900 C   0  0  1  0  0  0  0  0  0  0  0  0
   -3.9670   21.0380   -8.0700 O   0  0  0  0  0  0  0  0  0  0  0  0
   -4.3560   22.8250  -10.6480 O   0  0  0  0  0  0  0  0  0  0  0  0
   -1.4950   18.3840   -6.2240 P   0  0  0  0  0  0  0  0  0  0  0  0
   -4.7290   23.2570   -8.3360 C   0  0  1  0  0  0  0  0  0  0  0  0
   -5.1200   21.8580   -7.8580 C   0  0  2  0  0  0  0  0  0  0  0  0
   -4.1280   24.1640   -7.4810 O   0  0  0  0  0  0  0  0  0  0  0  0
   -5.4540   21.7290   -6.4560 O   0  0  0  0  0  0  0  0  0  0  0  0
   -0.1980   17.4640   -6.2920 O   0  0  0  0  0  0  0  0  0  0  0  0
   -2.6270   17.8910   -7.0350 O   0  0  0  0  0  0  0  0  0  0  0  0
   -1.7590   18.3390   -4.6590 O   0  0  0  0  0  0  0  0  0  0  0  0
   -4.9150   24.3830   -6.3860 C   0  0  1  0  0  0  0  0  0  0  0  0
   -4.5370   25.7400   -5.8720 C   0  0  0  0  0  0  0  0  0  0  0  0
   -6.2420   24.2430   -6.7730 O   0  0  0  0  0  0  0  0  0  0  0  0
  1  2  1  0
  2  3  1  0
  4  1  1  1
  2  5  2  0
  2  6  1  6
  4  7  1  0
  4  8  1  0
  7  9  1  6
  3 10  1  0
  7 11  1  0
  8 12  1  0
 11 12  1  0
 11 13  1  1
 12 14  1  1
 10 15  1  0
 10 16  2  0
 10 17  1  0
 13 18  1  0
 18 19  1  6
 18 20  1  0
M  END
>  <%Rank>  (454) 
34.580153

>  <N_hits>  (454) 
2

>  <submitter_name>  (454) 
nan

>  <original SMILES>  (454) 
nan

>  <∆G_unbound>  (454) 
2.482719

>  <∆G_bound>  (454) 
-10.420703

>  <regarded>  (454) 
5CB5_0_F_α,mArh-5cb5_K_0_K_β

>  <ref_pdb>  (454) 
nan

>  <smiles>  (454) 
C[C@@H](O)OC1C(O)OC(CP(=O)(O)OP(=O)(O)O)C1O

>  <submitter_email>  (454) 
nan

>  <disregarded>  (454) 


>  <LE>  (454) 
-0.645171

>  <submitter_institution>  (454) 
nan

>  <ref_mols>  (454) 
5CB5_0_F,mArh-5cb5_K_0_K

>  <N_constrained_atoms>  (454) 
20.0

>  <ref_url>  (454) 
nan

>  <method>  (454) 
nan

>  <comRMSD>  (454) 
0.868

>  <N_unconstrained_atoms>  (454) 
0.0

>  <∆∆G>  (454) 
-12.903422

>  <runtime>  (454) 
38.658945

>  <generation_date>  (454) 
nan

$$$$
mArh-5cb3_0_A_γ-mArh-5cb5_N_0_N_β
     RDKit          3D

 16 16  0  0  0  0  0  0  0  0999 V2000
   -1.7970   12.9510   -4.1590 O   0  0  0  0  0  0  0  0  0  0  0  0
   -0.5510   13.5750   -3.9050 C   0  0  2  0  0  0  0  0  0  0  0  0
   -0.5790   14.5590   -2.7280 C   0  0  0  0  0  0  0  0  0  0  0  0
   -0.0780   14.4360   -5.0640 C   0  0  2  0  0  0  0  0  0  0  0  0
    1.3520   14.3190   -5.0530 O   0  0  0  0  0  0  0  0  0  0  0  0
   -0.1690   15.8390   -3.2420 O   0  0  0  0  0  0  0  0  0  0  0  0
   -0.6080   15.8010   -4.6080 C   0  0  1  0  0  0  0  0  0  0  0  0
   -0.1450   17.0730   -5.3200 C   0  0  0  0  0  0  0  0  0  0  0  0
   -1.4620   18.1890   -5.9210 P   0  0  1  0  0  0  0  0  0  0  0  0
   -0.7500   19.4570   -6.5140 O   0  0  0  0  0  0  0  0  0  0  0  0
   -2.4820   17.5620   -6.8220 O   0  0  0  0  0  0  0  0  0  0  0  0
   -2.1440   18.9130   -4.6710 O   0  0  0  0  0  0  0  0  0  0  0  0
   -0.2580   19.9300   -7.9080 P   0  0  0  0  0  0  0  0  0  0  0  0
   -1.5750   20.5130   -8.5880 O   0  0  0  0  0  0  0  0  0  0  0  0
    0.8640   20.8860   -7.9330 O   0  0  0  0  0  0  0  0  0  0  0  0
   -0.0460   18.5950   -8.7710 O   0  0  0  0  0  0  0  0  0  0  0  0
  2  1  1  6
  2  3  1  0
  2  4  1  0
  4  5  1  1
  3  6  1  0
  4  7  1  0
  6  7  1  0
  7  8  1  6
  8  9  1  0
  9 10  1  0
  9 11  2  0
  9 12  1  1
 10 13  1  0
 13 14  1  0
 13 15  2  0
 13 16  1  0
M  END
>  <%Rank>  (455) 
34.656489

>  <N_hits>  (455) 
2

>  <submitter_name>  (455) 
nan

>  <original SMILES>  (455) 
nan

>  <∆G_unbound>  (455) 
1.057928

>  <∆G_bound>  (455) 
-8.711607

>  <regarded>  (455) 
mArh-5cb3_0_A_γ,mArh-5cb5_N_0_N_β

>  <ref_pdb>  (455) 
nan

>  <smiles>  (455) 
O=P(O)(O)OP(=O)(O)CC1OCC(O)C1O

>  <submitter_email>  (455) 
nan

>  <disregarded>  (455) 


>  <LE>  (455) 
-0.610596

>  <submitter_institution>  (455) 
nan

>  <ref_mols>  (455) 
mArh-5cb3_0_A,mArh-5cb5_N_0_N

>  <N_constrained_atoms>  (455) 
16.0

>  <ref_url>  (455) 
nan

>  <method>  (455) 
nan

>  <comRMSD>  (455) 
0.76761

>  <N_unconstrained_atoms>  (455) 
0.0

>  <∆∆G>  (455) 
-9.769535

>  <runtime>  (455) 
26.714056

>  <generation_date>  (455) 
nan

$$$$
mArh-5cb5_N_0_N_β-mArh-5cms_H_7_H_γ
     RDKit          3D

 16 16  0  0  0  0  0  0  0  0999 V2000
   -1.6440   20.4330   -8.3840 O   0  0  0  0  0  0  0  0  0  0  0  0
   -0.2760   19.8460   -7.8320 P   0  0  0  0  0  0  0  0  0  0  0  0
   -0.5980   19.3430   -6.3850 O   0  0  0  0  0  0  0  0  0  0  0  0
    0.8310   20.8180   -7.8880 O   0  0  0  0  0  0  0  0  0  0  0  0
   -0.0630   18.5480   -8.7430 O   0  0  0  0  0  0  0  0  0  0  0  0
   -1.4780   18.1040   -6.0020 P   0  0  2  0  0  0  0  0  0  0  0  0
   -0.3970   16.9860   -5.5690 O   0  0  0  0  0  0  0  0  0  0  0  0
   -2.5730   17.7330   -6.9310 O   0  0  0  0  0  0  0  0  0  0  0  0
   -2.0180   18.7140   -4.6370 O   0  0  0  0  0  0  0  0  0  0  0  0
   -0.7110   15.9450   -4.6550 C   0  0  2  0  0  0  0  0  0  0  0  0
    0.0460   15.9720   -3.4350 O   0  0  0  0  0  0  0  0  0  0  0  0
   -0.4750   14.5020   -5.1190 C   0  0  1  0  0  0  0  0  0  0  0  0
    0.9050   14.0890   -5.2550 O   0  0  0  0  0  0  0  0  0  0  0  0
   -0.2430   14.7010   -2.8100 C   0  0  0  0  0  0  0  0  0  0  0  0
   -0.9860   13.8660   -3.8560 C   0  0  2  0  0  0  0  0  0  0  0  0
   -0.6890   12.4880   -3.8220 O   0  0  0  0  0  0  0  0  0  0  0  0
  1  2  1  0
  2  3  1  0
  2  4  2  0
  2  5  1  0
  3  6  1  0
  6  7  1  0
  6  8  2  0
  6  9  1  1
 10  7  1  6
 10 11  1  0
 10 12  1  0
 12 13  1  1
 11 14  1  0
 12 15  1  0
 14 15  1  0
 15 16  1  6
M  END
>  <%Rank>  (456) 
34.732824

>  <N_hits>  (456) 
2

>  <submitter_name>  (456) 
nan

>  <original SMILES>  (456) 
nan

>  <∆G_unbound>  (456) 
1.157846

>  <∆G_bound>  (456) 
-8.09619

>  <regarded>  (456) 
mArh-5cb5_N_0_N_β,mArh-5cms_H_7_H_γ

>  <ref_pdb>  (456) 
nan

>  <smiles>  (456) 
O=P(O)(O)OP(=O)(O)OC1OCC(O)C1O

>  <submitter_email>  (456) 
nan

>  <disregarded>  (456) 


>  <LE>  (456) 
-0.578377

>  <submitter_institution>  (456) 
nan

>  <ref_mols>  (456) 
mArh-5cb5_N_0_N,mArh-5cms_H_7_H

>  <N_constrained_atoms>  (456) 
16.0

>  <ref_url>  (456) 
nan

>  <method>  (456) 
nan

>  <comRMSD>  (456) 
0.751573

>  <N_unconstrained_atoms>  (456) 
0.0

>  <∆∆G>  (456) 
-9.254036

>  <runtime>  (456) 
32.599604

>  <generation_date>  (456) 
nan

$$$$
mArh-EU0291_0_A_α-5CMS_0_J_β
     RDKit          3D

 23 24  0  0  0  0  0  0  0  0999 V2000
   -4.1020   14.5970   -2.2490 O   0  0  0  0  0  0  0  0  0  0  0  0
   -3.8250   14.8710   -1.0740 C   0  0  0  0  0  0  0  0  0  0  0  0
   -4.7670   15.2080   -0.1620 N   0  0  0  0  0  0  0  0  0  0  0  0
   -2.5240   14.8470   -0.6530 C   0  0  0  0  0  0  0  0  0  0  0  0
   -2.2360   14.8530    0.7130 C   0  0  0  0  0  0  0  0  0  0  0  0
   -4.4750   15.2060    1.1470 C   0  0  0  0  0  0  0  0  0  0  0  0
   -1.4990   14.8170   -1.5800 C   0  0  0  0  0  0  0  0  0  0  0  0
   -1.5850   14.7900   -3.0240 C   0  0  0  0  0  0  0  0  0  0  0  0
   -3.2570   14.8740    1.5810 N   0  0  0  0  0  0  0  0  0  0  0  0
   -0.2230   14.8150   -1.0440 C   0  0  0  0  0  0  0  0  0  0  0  0
   -0.9550   14.8390    1.1710 C   0  0  0  0  0  0  0  0  0  0  0  0
   -2.5010   15.7910   -3.6300 C   0  0  0  0  0  0  0  0  0  0  0  0
    0.0240   14.8310    0.2650 C   0  0  0  0  0  0  0  0  0  0  0  0
   -1.9810   15.8970   -5.0660 C   0  0  0  0  0  0  0  0  0  0  0  0
   -1.0160   16.8370   -5.0500 O   0  0  0  0  0  0  0  0  0  0  0  0
   -1.3050   18.0760   -6.0430 P   0  0  0  0  0  0  0  0  0  0  0  0
   -0.4300   19.3830   -6.1590 O   0  0  0  0  0  0  0  0  0  0  0  0
   -2.5170   17.8350   -7.1650 O   0  0  0  0  0  0  0  0  0  0  0  0
   -2.3450   18.7140   -5.1780 O   0  0  0  0  0  0  0  0  0  0  0  0
   -0.4280   19.9520   -7.6370 P   0  0  0  0  0  0  0  0  0  0  0  0
    0.2510   21.3660   -8.0510 O   0  0  0  0  0  0  0  0  0  0  0  0
    0.7760   19.0770   -7.9230 O   0  0  0  0  0  0  0  0  0  0  0  0
   -1.1930   19.0720   -8.7740 O   0  0  0  0  0  0  0  0  0  0  0  0
  1  2  2  0
  2  3  1  0
  2  4  1  0
  4  5  2  0
  3  6  2  0
  4  7  1  0
  7  8  1  0
  5  9  1  0
  6  9  1  0
  7 10  2  0
  5 11  1  0
  8 12  1  0
 10 13  1  0
 11 13  2  0
 12 14  1  0
 14 15  1  0
 15 16  1  0
 16 17  1  0
 16 18  1  0
 16 19  1  0
 17 20  1  0
 20 21  1  0
 20 22  1  0
 20 23  1  0
M  CHG  2  18  -1  22  -1
M  END
>  <%Rank>  (457) 
34.80916

>  <N_hits>  (457) 
2

>  <submitter_name>  (457) 
nan

>  <original SMILES>  (457) 
nan

>  <∆G_unbound>  (457) 
0.82114

>  <∆G_bound>  (457) 
-8.274591

>  <regarded>  (457) 
mArh-EU0291_0_A_α,5CMS_0_J_β

>  <ref_pdb>  (457) 
nan

>  <smiles>  (457) 
O=c1nc[nH]c2cccc(CCCO[PH]([O-])(O)O[PH]([O-])(O)O)c12

>  <submitter_email>  (457) 
nan

>  <disregarded>  (457) 


>  <LE>  (457) 
-0.395467

>  <submitter_institution>  (457) 
nan

>  <ref_mols>  (457) 
mArh-EU0291_0_A,5CMS_0_J

>  <N_constrained_atoms>  (457) 
20.0

>  <ref_url>  (457) 
nan

>  <method>  (457) 
nan

>  <comRMSD>  (457) 
0.669347

>  <N_unconstrained_atoms>  (457) 
3.0

>  <∆∆G>  (457) 
-9.095731

>  <runtime>  (457) 
33.02425

>  <generation_date>  (457) 
nan

$$$$
mArh-x0905_0_A_α-mArh-5cb5_D_0_D_γ
     RDKit          3D

 17 18  0  0  0  0  0  0  0  0999 V2000
   -7.2470   15.0750   -0.5980 O   0  0  0  0  0  0  0  0  0  0  0  0
   -5.8990   15.0670   -0.4910 C   0  0  0  0  0  0  0  0  0  0  0  0
   -5.4350   15.0530    0.7680 N   0  0  0  0  0  0  0  0  0  0  0  0
   -5.1290   15.0680   -1.6250 C   0  0  0  0  0  0  0  0  0  0  0  0
   -4.0920   15.0580    0.9030 C   0  0  0  0  0  0  0  0  0  0  0  0
   -3.7520   15.0580   -1.4680 C   0  0  0  0  0  0  0  0  0  0  0  0
   -2.8700   15.0400   -2.6730 C   0  0  0  0  0  0  0  0  0  0  0  0
   -3.2170   15.0590   -0.1710 C   0  0  0  0  0  0  0  0  0  0  0  0
   -1.6200   15.8680   -2.4900 C   0  0  0  0  0  0  0  0  0  0  0  0
   -0.3100   15.2570   -2.9520 C   0  0  2  0  0  0  0  0  0  0  0  0
    0.3550   16.4000   -3.5300 O   0  0  0  0  0  0  0  0  0  0  0  0
   -0.3320   14.1770   -4.0550 C   0  0  2  0  0  0  0  0  0  0  0  0
    0.1820   12.8980   -3.6760 O   0  0  0  0  0  0  0  0  0  0  0  0
    0.1530   16.2160   -4.9240 C   0  0  2  0  0  0  0  0  0  0  0  0
    0.6440   14.7820   -5.0360 C   0  0  2  0  0  0  0  0  0  0  0  0
    0.8720   17.2940   -5.6990 C   0  0  0  0  0  0  0  0  0  0  0  0
    0.5250   14.0980   -6.2530 O   0  0  0  0  0  0  0  0  0  0  0  0
  1  2  1  0
  2  3  2  0
  2  4  1  0
  3  5  1  0
  4  6  2  0
  6  7  1  0
  5  8  2  0
  6  8  1  0
  7  9  1  0
 10  9  1  6
 10 11  1  0
 10 12  1  0
 12 13  1  1
 11 14  1  0
 12 15  1  0
 14 15  1  0
 14 16  1  6
 15 17  1  6
M  END
>  <%Rank>  (458) 
34.885496

>  <N_hits>  (458) 
2

>  <submitter_name>  (458) 
nan

>  <original SMILES>  (458) 
nan

>  <∆G_unbound>  (458) 
0.109026

>  <∆G_bound>  (458) 
-4.80769

>  <regarded>  (458) 
mArh-x0905_0_A_α,mArh-5cb5_D_0_D_γ

>  <ref_pdb>  (458) 
nan

>  <smiles>  (458) 
CC1OC(CCc2ccnc(O)c2)C(O)C1O

>  <submitter_email>  (458) 
nan

>  <disregarded>  (458) 


>  <LE>  (458) 
-0.289219

>  <submitter_institution>  (458) 
nan

>  <ref_mols>  (458) 
mArh-x0905_0_A,mArh-5cb5_D_0_D

>  <N_constrained_atoms>  (458) 
15.0

>  <ref_url>  (458) 
nan

>  <method>  (458) 
nan

>  <comRMSD>  (458) 
0.518359

>  <N_unconstrained_atoms>  (458) 
2.0

>  <∆∆G>  (458) 
-4.916716

>  <runtime>  (458) 
28.86632

>  <generation_date>  (458) 
nan

$$$$
mArh-5cb5_N_0_N_β-6FX7_0_A_γ
     RDKit          3D

 16 16  0  0  0  0  0  0  0  0999 V2000
   -1.6520   20.4920   -8.4470 O   0  0  0  0  0  0  0  0  0  0  0  0
   -0.2750   19.9290   -7.8940 P   0  0  0  0  0  0  0  0  0  0  0  0
   -0.5580   19.4250   -6.4390 O   0  0  0  0  0  0  0  0  0  0  0  0
    0.8150   20.9180   -8.0010 O   0  0  0  0  0  0  0  0  0  0  0  0
   -0.0600   18.6030   -8.7670 O   0  0  0  0  0  0  0  0  0  0  0  0
   -1.5430   18.2690   -6.0430 P   0  0  2  0  0  0  0  0  0  0  0  0
   -0.5590   17.1060   -5.5340 O   0  0  0  0  0  0  0  0  0  0  0  0
   -2.6070   17.9170   -7.0120 O   0  0  0  0  0  0  0  0  0  0  0  0
   -2.1170   18.9670   -4.7260 O   0  0  0  0  0  0  0  0  0  0  0  0
   -1.0150   16.0870   -4.6760 C   0  0  2  0  0  0  0  0  0  0  0  0
   -0.2520   15.9980   -3.4680 O   0  0  0  0  0  0  0  0  0  0  0  0
   -0.9390   14.6510   -5.2090 C   0  0  1  0  0  0  0  0  0  0  0  0
    0.3830   14.1740   -5.5380 O   0  0  0  0  0  0  0  0  0  0  0  0
   -0.6130   14.7330   -2.8860 C   0  0  0  0  0  0  0  0  0  0  0  0
   -1.3520   13.9360   -3.9630 C   0  0  2  0  0  0  0  0  0  0  0  0
   -0.9610   12.5840   -4.0460 O   0  0  0  0  0  0  0  0  0  0  0  0
  1  2  1  0
  2  3  1  0
  2  4  2  0
  2  5  1  0
  3  6  1  0
  6  7  1  0
  6  8  2  0
  6  9  1  1
 10  7  1  6
 10 11  1  0
 10 12  1  0
 12 13  1  1
 11 14  1  0
 12 15  1  0
 14 15  1  0
 15 16  1  6
M  END
>  <%Rank>  (459) 
34.961832

>  <N_hits>  (459) 
2

>  <submitter_name>  (459) 
nan

>  <original SMILES>  (459) 
nan

>  <∆G_unbound>  (459) 
1.157846

>  <∆G_bound>  (459) 
-7.603101

>  <regarded>  (459) 
mArh-5cb5_N_0_N_β,6FX7_0_A_γ

>  <ref_pdb>  (459) 
nan

>  <smiles>  (459) 
O=P(O)(O)OP(=O)(O)OC1OCC(O)C1O

>  <submitter_email>  (459) 
nan

>  <disregarded>  (459) 


>  <LE>  (459) 
-0.547559

>  <submitter_institution>  (459) 
nan

>  <ref_mols>  (459) 
mArh-5cb5_N_0_N,6FX7_0_A

>  <N_constrained_atoms>  (459) 
16.0

>  <ref_url>  (459) 
nan

>  <method>  (459) 
nan

>  <comRMSD>  (459) 
0.738607

>  <N_unconstrained_atoms>  (459) 
0.0

>  <∆∆G>  (459) 
-8.760947

>  <runtime>  (459) 
23.546456

>  <generation_date>  (459) 
nan

$$$$
5CMS_0_M_β-mArh-3q6z_0_A_α
     RDKit          3D

 17 17  0  0  0  0  0  0  0  0999 V2000
   -1.9740   20.9090   -8.3090 O   0  0  0  0  0  0  0  0  0  0  0  0
   -0.6660   20.2090   -7.6840 P   0  0  0  0  0  0  0  0  0  0  0  0
   -0.5140   18.9030   -6.6370 O   0  0  0  0  0  0  0  0  0  0  0  0
   -3.0110   21.5540   -7.7200 C   0  0  1  0  0  0  0  0  0  0  0  0
    0.7860   21.0660   -7.9160 O   0  0  0  0  0  0  0  0  0  0  0  0
   -0.1800   19.2410   -8.7670 O   0  0  0  0  0  0  0  0  0  0  0  0
   -3.3080   23.0450   -7.7190 C   0  0  1  0  0  0  0  0  0  0  0  0
   -4.2580   21.1730   -8.1400 O   0  0  0  0  0  0  0  0  0  0  0  0
   -1.7880   18.2460   -5.9140 P   0  0  0  0  0  0  0  0  0  0  0  0
   -4.0880   23.5510   -8.7730 O   0  0  0  0  0  0  0  0  0  0  0  0
   -4.3640   22.9170   -6.6000 C   0  0  2  0  0  0  0  0  0  0  0  0
   -5.0860   21.7130   -7.1530 C   0  0  1  0  0  0  0  0  0  0  0  0
   -1.1280   16.9020   -5.6060 O   0  0  0  0  0  0  0  0  0  0  0  0
   -2.9080   17.4780   -6.8590 O   0  0  0  0  0  0  0  0  0  0  0  0
   -2.6600   19.4980   -5.9790 O   0  0  0  0  0  0  0  0  0  0  0  0
   -5.2350   23.9860   -6.5090 O   0  0  0  0  0  0  0  0  0  0  0  0
   -6.3180   21.9820   -7.7100 O   0  0  0  0  0  0  0  0  0  0  0  0
  1  2  1  0
  2  3  1  0
  4  1  1  6
  2  5  1  0
  2  6  1  0
  4  7  1  0
  4  8  1  0
  3  9  1  0
  7 10  1  6
  7 11  1  0
  8 12  1  0
 11 12  1  0
  9 13  1  0
  9 14  1  0
  9 15  1  0
 11 16  1  6
 12 17  1  6
M  CHG  2   5  -1  14  -1
M  END
>  <%Rank>  (460) 
35.038168

>  <N_hits>  (460) 
2

>  <submitter_name>  (460) 
nan

>  <original SMILES>  (460) 
nan

>  <∆G_unbound>  (460) 
0.594901

>  <∆G_bound>  (460) 
-7.328234

>  <regarded>  (460) 
5CMS_0_M_β,mArh-3q6z_0_A_α

>  <ref_pdb>  (460) 
nan

>  <smiles>  (460) 
[O-][PH](O)(O)O[PH]([O-])(O)OC1OC(O)C(O)C1O

>  <submitter_email>  (460) 
nan

>  <disregarded>  (460) 


>  <LE>  (460) 
-0.466067

>  <submitter_institution>  (460) 
nan

>  <ref_mols>  (460) 
5CMS_0_M,mArh-3q6z_0_A

>  <N_constrained_atoms>  (460) 
17.0

>  <ref_url>  (460) 
nan

>  <method>  (460) 
nan

>  <comRMSD>  (460) 
0.721172

>  <N_unconstrained_atoms>  (460) 
0.0

>  <∆∆G>  (460) 
-7.923135

>  <runtime>  (460) 
34.407649

>  <generation_date>  (460) 
nan

$$$$
mArh-5cms_M_12_M_β-mArh-5cms_D_3_D_α
     RDKit          3D

  9  8  0  0  0  0  0  0  0  0999 V2000
   -1.6890   20.2840   -8.1110 O   0  0  0  0  0  0  0  0  0  0  0  0
   -0.2330   19.7170   -7.7810 P   0  0  0  0  0  0  0  0  0  0  0  0
   -0.3450   18.7750   -6.5390 O   0  0  0  0  0  0  0  0  0  0  0  0
    0.8040   20.7730   -7.7420 O   0  0  0  0  0  0  0  0  0  0  0  0
    0.0150   18.6630   -8.9470 O   0  0  0  0  0  0  0  0  0  0  0  0
   -1.6700   18.1210   -6.0000 P   0  0  0  0  0  0  0  0  0  0  0  0
   -1.2250   16.8190   -5.2010 O   0  0  0  0  0  0  0  0  0  0  0  0
   -2.6750   17.8480   -7.0380 O   0  0  0  0  0  0  0  0  0  0  0  0
   -2.1430   19.1550   -4.8900 O   0  0  0  0  0  0  0  0  0  0  0  0
  1  2  1  0
  2  3  1  0
  2  4  2  0
  2  5  1  0
  3  6  1  0
  6  7  1  0
  6  8  2  0
  6  9  1  0
M  END
>  <%Rank>  (461) 
35.114504

>  <N_hits>  (461) 
2

>  <submitter_name>  (461) 
nan

>  <original SMILES>  (461) 
nan

>  <∆G_unbound>  (461) 
0.687887

>  <∆G_bound>  (461) 
-8.172296

>  <regarded>  (461) 
mArh-5cms_M_12_M_β,mArh-5cms_D_3_D_α

>  <ref_pdb>  (461) 
nan

>  <smiles>  (461) 
O=P(O)(O)OP(=O)(O)O

>  <submitter_email>  (461) 
nan

>  <disregarded>  (461) 


>  <LE>  (461) 
-0.984465

>  <submitter_institution>  (461) 
nan

>  <ref_mols>  (461) 
mArh-5cms_M_12_M,mArh-5cms_D_3_D

>  <N_constrained_atoms>  (461) 
9.0

>  <ref_url>  (461) 
nan

>  <method>  (461) 
nan

>  <comRMSD>  (461) 
0.75677

>  <N_unconstrained_atoms>  (461) 
0.0

>  <∆∆G>  (461) 
-8.860184

>  <runtime>  (461) 
22.58584

>  <generation_date>  (461) 
nan

$$$$
mArh-x0918_0_B_α-5CB5_0_A_α
     RDKit          3D

 19 20  0  0  0  0  0  0  0  0999 V2000
   -3.2440   29.6420  -14.3290 N   0  0  0  0  0  0  0  0  0  0  0  0
   -4.4740   29.3310  -13.7430 C   0  0  0  0  0  0  0  0  0  0  0  0
   -4.6240   28.2310  -12.8890 C   0  0  0  0  0  0  0  0  0  0  0  0
   -5.5860   30.1190  -14.0060 C   0  0  0  0  0  0  0  0  0  0  0  0
   -6.7860   29.7950  -13.4150 C   0  0  0  0  0  0  0  0  0  0  0  0
   -5.8850   27.9620  -12.3380 C   0  0  0  0  0  0  0  0  0  0  0  0
   -6.1610   26.7740  -11.4320 C   0  0  0  0  0  0  0  0  0  0  0  0
   -6.9550   28.7440  -12.5940 N   0  0  0  0  0  0  0  0  0  0  0  0
   -5.2220   25.5460  -11.5140 C   0  0  0  0  0  0  0  0  0  0  0  0
   -5.5200   24.3990  -10.5200 C   0  0  0  0  0  0  0  0  0  0  0  0
   -4.3320   23.6350  -10.2470 O   0  0  0  0  0  0  0  0  0  0  0  0
   -4.0150   23.3620   -8.8630 C   0  0  2  0  0  0  0  0  0  0  0  0
   -3.3310   21.9770   -8.7470 C   0  0  1  0  0  0  0  0  0  0  0  0
   -5.2930   23.1690   -8.0420 C   0  0  2  0  0  0  0  0  0  0  0  0
   -1.9280   21.9600   -8.1720 C   0  0  0  0  0  0  0  0  0  0  0  0
   -5.7510   24.3050   -7.3470 O   0  0  0  0  0  0  0  0  0  0  0  0
   -4.1380   21.1630   -7.8940 O   0  0  0  0  0  0  0  0  0  0  0  0
   -4.9520   22.0210   -7.1130 C   0  0  2  0  0  0  0  0  0  0  0  0
   -6.1150   21.3690   -6.6140 O   0  0  0  0  0  0  0  0  0  0  0  0
  1  2  1  0
  2  3  2  0
  2  4  1  0
  4  5  2  0
  3  6  1  0
  6  7  1  0
  5  8  1  0
  6  8  2  0
  7  9  1  0
  9 10  1  0
 10 11  1  0
 12 11  1  6
 12 13  1  0
 12 14  1  0
 13 15  1  1
 14 16  1  1
 13 17  1  0
 14 18  1  0
 17 18  1  0
 18 19  1  6
M  END
>  <%Rank>  (462) 
35.19084

>  <N_hits>  (462) 
2

>  <submitter_name>  (462) 
nan

>  <original SMILES>  (462) 
nan

>  <∆G_unbound>  (462) 
1.246004

>  <∆G_bound>  (462) 
-7.444741

>  <regarded>  (462) 
mArh-x0918_0_B_α,5CB5_0_A_α

>  <ref_pdb>  (462) 
nan

>  <smiles>  (462) 
CC1OC(O)C(O)C1OCCCc1cc(N)ccn1

>  <submitter_email>  (462) 
nan

>  <disregarded>  (462) 


>  <LE>  (462) 
-0.457408

>  <submitter_institution>  (462) 
nan

>  <ref_mols>  (462) 
mArh-x0918_0_B,5CB5_0_A

>  <N_constrained_atoms>  (462) 
16.0

>  <ref_url>  (462) 
nan

>  <method>  (462) 
nan

>  <comRMSD>  (462) 
0.601552

>  <N_unconstrained_atoms>  (462) 
3.0

>  <∆∆G>  (462) 
-8.690745

>  <runtime>  (462) 
33.994227

>  <generation_date>  (462) 
nan

$$$$
mArh-5l9k_B_0_B_γ-mArh-x0104_0_A_α
     RDKit          3D

 22 23  0  0  0  0  0  0  0  0999 V2000
   -2.8220   12.9870   -4.3250 O   0  0  0  0  0  0  0  0  0  0  0  0
   -1.5970   13.4710   -3.7950 C   0  0  2  0  0  0  0  0  0  0  0  0
   -1.7760   14.5310   -2.7190 C   0  0  2  0  0  0  0  0  0  0  0  0
   -0.7200   14.0990   -4.8770 C   0  0  2  0  0  0  0  0  0  0  0  0
    0.3610   13.2360   -5.1730 O   0  0  0  0  0  0  0  0  0  0  0  0
   -3.2290   15.0370   -2.6260 C   0  0  0  0  0  0  0  0  0  0  0  0
   -0.8290   15.5750   -3.0010 O   0  0  0  0  0  0  0  0  0  0  0  0
   -0.2350   15.4250   -4.2960 C   0  0  2  0  0  0  0  0  0  0  0  0
   -0.5570   16.6390   -5.1510 C   0  0  0  0  0  0  0  0  0  0  0  0
   -4.0890   14.2300   -1.6340 C   0  0  0  0  0  0  0  0  0  0  0  0
   -3.8500   14.5550   -0.1460 C   0  0  0  0  0  0  0  0  0  0  0  0
   -4.9360   15.3800    0.5680 C   0  0  0  0  0  0  0  0  0  0  0  0
   -6.2090   14.6000    0.9840 C   0  0  0  0  0  0  0  0  0  0  0  0
   -6.4550   14.6060    2.5070 C   0  0  0  0  0  0  0  0  0  0  0  0
   -7.8560   15.0060    3.0270 C   0  0  0  0  0  0  0  0  0  0  0  0
   -7.8610   14.9980    4.4200 N   0  0  0  0  0  0  0  0  0  0  0  0
   -8.8010   15.2830    2.2910 O   0  0  0  0  0  0  0  0  0  0  0  0
   -8.9900   15.0510    5.2330 C   0  0  0  0  0  0  0  0  0  0  0  0
   -9.1490   15.1850    6.5970 C   0  0  0  0  0  0  0  0  0  0  0  0
  -10.4880   14.9280    4.4260 S   0  0  0  0  0  0  0  0  0  0  0  0
  -10.5270   15.1840    6.9810 C   0  0  0  0  0  0  0  0  0  0  0  0
  -11.3670   15.0500    5.8970 C   0  0  0  0  0  0  0  0  0  0  0  0
  2  1  1  6
  2  3  1  0
  2  4  1  0
  4  5  1  1
  3  6  1  6
  3  7  1  0
  4  8  1  0
  7  8  1  0
  8  9  1  6
  6 10  1  0
 10 11  1  0
 11 12  1  0
 12 13  1  0
 13 14  1  0
 14 15  1  0
 15 16  1  0
 15 17  2  0
 16 18  1  0
 18 19  2  0
 18 20  1  0
 19 21  1  0
 20 22  1  0
 21 22  2  0
M  END
>  <%Rank>  (463) 
35.267176

>  <N_hits>  (463) 
2

>  <submitter_name>  (463) 
nan

>  <original SMILES>  (463) 
nan

>  <∆G_unbound>  (463) 
0.136723

>  <∆G_bound>  (463) 
-6.051327

>  <regarded>  (463) 
mArh-5l9k_B_0_B_γ,mArh-x0104_0_A_α

>  <ref_pdb>  (463) 
nan

>  <smiles>  (463) 
CC1OC(CCCCCCC(=O)Nc2cccs2)C(O)C1O

>  <submitter_email>  (463) 
nan

>  <disregarded>  (463) 


>  <LE>  (463) 
-0.281275

>  <submitter_institution>  (463) 
nan

>  <ref_mols>  (463) 
mArh-5l9k_B_0_B,mArh-x0104_0_A

>  <N_constrained_atoms>  (463) 
16.0

>  <ref_url>  (463) 
nan

>  <method>  (463) 
nan

>  <comRMSD>  (463) 
0.419843

>  <N_unconstrained_atoms>  (463) 
6.0

>  <∆∆G>  (463) 
-6.188051

>  <runtime>  (463) 
44.282392

>  <generation_date>  (463) 
nan

$$$$
mArh-5l9k_A_0_A_γ-6FX7_0_A_β
     RDKit          3D

 16 16  0  0  0  0  0  0  0  0999 V2000
   -2.7000   13.0980   -4.0610 O   0  0  0  0  0  0  0  0  0  0  0  0
   -1.4260   13.6150   -3.8500 C   0  0  2  0  0  0  0  0  0  0  0  0
   -1.3840   14.6560   -2.7410 C   0  0  0  0  0  0  0  0  0  0  0  0
   -0.8850   14.3600   -5.0460 C   0  0  2  0  0  0  0  0  0  0  0  0
    0.4600   13.9980   -5.1250 O   0  0  0  0  0  0  0  0  0  0  0  0
   -0.6120   15.6860   -3.2950 O   0  0  0  0  0  0  0  0  0  0  0  0
   -1.0970   15.7600   -4.5810 C   0  0  1  0  0  0  0  0  0  0  0  0
   -0.5080   16.9510   -5.3620 C   0  0  0  0  0  0  0  0  0  0  0  0
   -1.7050   18.1440   -5.8590 P   0  0  0  0  0  0  0  0  0  0  0  0
   -0.8100   19.3410   -6.2300 O   0  0  0  0  0  0  0  0  0  0  0  0
   -2.2380   19.2540   -4.7090 O   0  0  0  0  0  0  0  0  0  0  0  0
   -2.4800   18.1620   -7.2510 O   0  0  0  0  0  0  0  0  0  0  0  0
   -0.1170   19.6920   -7.6220 P   0  0  0  0  0  0  0  0  0  0  0  0
   -1.3770   20.3030   -8.2570 O   0  0  0  0  0  0  0  0  0  0  0  0
   -0.0220   18.5820   -8.8630 O   0  0  0  0  0  0  0  0  0  0  0  0
    0.7360   21.1040   -7.7420 O   0  0  0  0  0  0  0  0  0  0  0  0
  2  1  1  6
  2  3  1  0
  2  4  1  0
  4  5  1  1
  3  6  1  0
  4  7  1  0
  6  7  1  0
  7  8  1  6
  8  9  1  0
  9 10  1  0
  9 11  1  0
  9 12  1  0
 10 13  1  0
 13 14  1  0
 13 15  1  0
 13 16  1  0
M  CHG  2  11  -1  15  -1
M  END
>  <%Rank>  (464) 
35.343511

>  <N_hits>  (464) 
2

>  <submitter_name>  (464) 
nan

>  <original SMILES>  (464) 
nan

>  <∆G_unbound>  (464) 
0.683631

>  <∆G_bound>  (464) 
-6.991249

>  <regarded>  (464) 
mArh-5l9k_A_0_A_γ,6FX7_0_A_β

>  <ref_pdb>  (464) 
nan

>  <smiles>  (464) 
[O-][PH](O)(O)O[PH]([O-])(O)CC1OCC(O)C1O

>  <submitter_email>  (464) 
nan

>  <disregarded>  (464) 


>  <LE>  (464) 
-0.47968

>  <submitter_institution>  (464) 
nan

>  <ref_mols>  (464) 
mArh-5l9k_A_0_A,6FX7_0_A

>  <N_constrained_atoms>  (464) 
16.0

>  <ref_url>  (464) 
nan

>  <method>  (464) 
nan

>  <comRMSD>  (464) 
0.706651

>  <N_unconstrained_atoms>  (464) 
0.0

>  <∆∆G>  (464) 
-7.67488

>  <runtime>  (464) 
32.938562

>  <generation_date>  (464) 
nan

$$$$
mArh-x0844_0_A_α-3EW5_0_C_α
     RDKit          3D

 22 22  0  0  0  0  0  0  0  0999 V2000
   -7.2480   14.8870   -0.4960 O   0  0  0  0  0  0  0  0  0  0  0  0
   -5.9920   14.8800   -0.4050 C   0  0  0  0  0  0  0  0  0  0  0  0
   -5.4530   14.8900    0.9090 N   0  0  0  0  0  0  0  0  0  0  0  0
   -5.1680   14.8650   -1.6280 C   0  0  0  0  0  0  0  0  0  0  0  0
   -4.0460   15.1010    1.0080 C   0  0  0  0  0  0  0  0  0  0  0  0
   -3.7810   15.4030   -1.4590 C   0  0  2  0  0  0  0  0  0  0  0  0
   -2.8540   14.9510   -2.4360 O   0  0  0  0  0  0  0  0  0  0  0  0
   -3.3110   15.3270   -0.0570 C   0  0  0  0  0  0  0  0  0  0  0  0
   -2.7850   15.6710   -3.6560 C   0  0  0  0  0  0  0  0  0  0  0  0
   -1.4500   16.3330   -4.0070 C   0  0  0  0  0  0  0  0  0  0  0  0
   -1.5250   17.6760   -4.7720 C   0  0  0  0  0  0  0  0  0  0  0  0
   -0.7520   17.8050   -6.0930 C   0  0  0  0  0  0  0  0  0  0  0  0
   -0.2500   19.0680   -6.3510 O   0  0  0  0  0  0  0  0  0  0  0  0
   -0.3730   19.8750   -7.7790 P   0  0  0  0  0  0  0  0  0  0  0  0
   -1.8250   20.5440   -8.1950 O   0  0  0  0  0  0  0  0  0  0  0  0
    0.1060   21.2200   -7.2950 O   0  0  0  0  0  0  0  0  0  0  0  0
   -0.6380   18.5790   -8.5380 O   0  0  0  0  0  0  0  0  0  0  0  0
   -2.3370   21.5380   -7.4010 C   0  0  0  0  0  0  0  0  0  0  0  0
   -3.8620   21.6750   -7.6600 C   0  0  2  0  0  0  0  0  0  0  0  0
   -4.1340   22.9680   -8.3950 C   0  0  0  0  0  0  0  0  0  0  0  0
   -4.4760   21.8080   -6.4150 O   0  0  0  0  0  0  0  0  0  0  0  0
   -4.6850   22.6360   -9.6350 O   0  0  0  0  0  0  0  0  0  0  0  0
  1  2  2  0
  2  3  1  0
  2  4  1  0
  3  5  1  0
  4  6  1  0
  6  7  1  6
  5  8  2  0
  6  8  1  0
  7  9  1  0
  9 10  1  0
 10 11  1  0
 11 12  1  0
 12 13  1  0
 13 14  1  0
 14 15  1  0
 14 16  1  0
 14 17  1  0
 15 18  1  0
 18 19  1  0
 19 20  1  0
 19 21  1  1
 20 22  1  0
M  CHG  1  17  -1
M  END
>  <%Rank>  (465) 
35.419847

>  <N_hits>  (465) 
2

>  <submitter_name>  (465) 
nan

>  <original SMILES>  (465) 
nan

>  <∆G_unbound>  (465) 
0.443557

>  <∆G_bound>  (465) 
-9.07115

>  <regarded>  (465) 
mArh-x0844_0_A_α,3EW5_0_C_α

>  <ref_pdb>  (465) 
nan

>  <smiles>  (465) 
O=C1CC(OCCCCO[PH]([O-])(O)OC[C@@H](O)CO)C=CN1

>  <submitter_email>  (465) 
nan

>  <disregarded>  (465) 


>  <LE>  (465) 
-0.432487

>  <submitter_institution>  (465) 
nan

>  <ref_mols>  (465) 
mArh-x0844_0_A,3EW5_0_C

>  <N_constrained_atoms>  (465) 
18.0

>  <ref_url>  (465) 
nan

>  <method>  (465) 
nan

>  <comRMSD>  (465) 
0.616636

>  <N_unconstrained_atoms>  (465) 
4.0

>  <∆∆G>  (465) 
-9.514707

>  <runtime>  (465) 
41.38339

>  <generation_date>  (465) 
nan

$$$$
mArh-5cms_M_12_M_β-5CMS_0_D_α
     RDKit          3D

  9  8  0  0  0  0  0  0  0  0999 V2000
   -1.6890   20.2840   -8.1110 O   0  0  0  0  0  0  0  0  0  0  0  0
   -0.2330   19.7170   -7.7810 P   0  0  0  0  0  0  0  0  0  0  0  0
   -0.3450   18.7750   -6.5390 O   0  0  0  0  0  0  0  0  0  0  0  0
    0.8040   20.7730   -7.7420 O   0  0  0  0  0  0  0  0  0  0  0  0
    0.0150   18.6630   -8.9470 O   0  0  0  0  0  0  0  0  0  0  0  0
   -1.6700   18.1210   -6.0000 P   0  0  0  0  0  0  0  0  0  0  0  0
   -1.2250   16.8190   -5.2010 O   0  0  0  0  0  0  0  0  0  0  0  0
   -2.6750   17.8480   -7.0380 O   0  0  0  0  0  0  0  0  0  0  0  0
   -2.1430   19.1550   -4.8900 O   0  0  0  0  0  0  0  0  0  0  0  0
  1  2  1  0
  2  3  1  0
  2  4  2  0
  2  5  1  0
  3  6  1  0
  6  7  1  0
  6  8  2  0
  6  9  1  0
M  END
>  <%Rank>  (466) 
35.496183

>  <N_hits>  (466) 
2

>  <submitter_name>  (466) 
nan

>  <original SMILES>  (466) 
nan

>  <∆G_unbound>  (466) 
0.687887

>  <∆G_bound>  (466) 
-8.1723

>  <regarded>  (466) 
mArh-5cms_M_12_M_β,5CMS_0_D_α

>  <ref_pdb>  (466) 
nan

>  <smiles>  (466) 
O=P(O)(O)OP(=O)(O)O

>  <submitter_email>  (466) 
nan

>  <disregarded>  (466) 


>  <LE>  (466) 
-0.984465

>  <submitter_institution>  (466) 
nan

>  <ref_mols>  (466) 
mArh-5cms_M_12_M,5CMS_0_D

>  <N_constrained_atoms>  (466) 
9.0

>  <ref_url>  (466) 
nan

>  <method>  (466) 
nan

>  <comRMSD>  (466) 
0.759013

>  <N_unconstrained_atoms>  (466) 
0.0

>  <∆∆G>  (466) 
-8.860187

>  <runtime>  (466) 
27.871328

>  <generation_date>  (466) 
nan

$$$$
mArh-5l9k_B_0_B_β-4IQY_0_A_γ
     RDKit          3D

 18 18  0  0  0  0  0  0  0  0999 V2000
   -1.7270   20.7750   -8.8620 O   0  0  0  0  0  0  0  0  0  0  0  0
   -0.8000   19.8710   -7.9470 P   0  0  0  0  0  0  0  0  0  0  0  0
   -1.6570   19.6260   -6.6530 O   0  0  0  0  0  0  0  0  0  0  0  0
   -0.3550   18.6510   -8.6900 O   0  0  0  0  0  0  0  0  0  0  0  0
    0.3910   20.8610   -7.6310 O   0  0  0  0  0  0  0  0  0  0  0  0
   -1.8680   18.2330   -5.9740 P   0  0  1  0  0  0  0  0  0  0  0  0
   -0.5820   17.4150   -6.3610 O   0  0  0  0  0  0  0  0  0  0  0  0
   -2.1750   18.2190   -4.5450 O   0  0  0  0  0  0  0  0  0  0  0  0
   -2.9520   17.5160   -6.8800 O   0  0  0  0  0  0  0  0  0  0  0  0
    0.6050   17.7630   -5.6890 C   0  0  0  0  0  0  0  0  0  0  0  0
    1.0640   16.5720   -4.8750 C   0  0  0  0  0  0  0  0  0  0  0  0
   -0.0660   15.6980   -4.3790 C   0  0  2  0  0  0  0  0  0  0  0  0
   -0.0860   15.6510   -2.9410 O   0  0  0  0  0  0  0  0  0  0  0  0
   -0.0010   14.2340   -4.8100 C   0  0  1  0  0  0  0  0  0  0  0  0
    1.2550   13.6140   -4.5170 O   0  0  0  0  0  0  0  0  0  0  0  0
   -0.7930   14.4440   -2.5970 C   0  0  0  0  0  0  0  0  0  0  0  0
   -1.0850   13.6960   -3.9000 C   0  0  2  0  0  0  0  0  0  0  0  0
   -0.9420   12.2930   -3.7150 O   0  0  0  0  0  0  0  0  0  0  0  0
  1  2  1  0
  2  3  1  0
  2  4  2  0
  2  5  1  0
  3  6  1  0
  6  7  1  0
  6  8  2  0
  6  9  1  6
  7 10  1  0
 10 11  1  0
 12 11  1  1
 12 13  1  0
 12 14  1  0
 14 15  1  1
 13 16  1  0
 14 17  1  0
 16 17  1  0
 17 18  1  1
M  END
>  <%Rank>  (467) 
35.572519

>  <N_hits>  (467) 
2

>  <submitter_name>  (467) 
nan

>  <original SMILES>  (467) 
nan

>  <∆G_unbound>  (467) 
2.208268

>  <∆G_bound>  (467) 
-9.476649

>  <regarded>  (467) 
mArh-5l9k_B_0_B_β,4IQY_0_A_γ

>  <ref_pdb>  (467) 
nan

>  <smiles>  (467) 
O=P(O)(O)OP(=O)(O)OCCC1OCC(O)C1O

>  <submitter_email>  (467) 
nan

>  <disregarded>  (467) 


>  <LE>  (467) 
-0.649162

>  <submitter_institution>  (467) 
nan

>  <ref_mols>  (467) 
mArh-5l9k_B_0_B,4IQY_0_A

>  <N_constrained_atoms>  (467) 
17.0

>  <ref_url>  (467) 
nan

>  <method>  (467) 
nan

>  <comRMSD>  (467) 
0.785837

>  <N_unconstrained_atoms>  (467) 
1.0

>  <∆∆G>  (467) 
-11.684917

>  <runtime>  (467) 
35.026079

>  <generation_date>  (467) 
nan

$$$$
5LW0_0_A_δ-mArh-5cms_C_2_C_β
     RDKit          3D

 21 22  0  0  0  0  0  0  0  0999 V2000
   -4.4580   15.2720    1.6180 N   0  0  0  0  0  0  0  0  0  0  0  0
   -3.2280   15.1000    0.8680 C   0  0  2  0  0  0  0  0  0  0  0  0
   -3.2800   14.0130   -0.2190 C   0  0  2  0  0  0  0  0  0  0  0  0
   -2.2140   14.7840    1.8380 N   0  0  0  0  0  0  0  0  0  0  0  0
   -1.8610   13.7350   -0.6910 C   0  0  1  0  0  0  0  0  0  0  0  0
   -3.9960   14.2870   -1.4950 N   0  0  0  0  0  0  0  0  0  0  0  0
   -0.8800   14.8550    1.2740 C   0  0  0  0  0  0  0  0  0  0  0  0
   -1.6870   14.7040   -1.7650 N   0  0  0  0  0  0  0  0  0  0  0  0
   -3.0210   15.0400   -2.2740 C   0  0  1  0  0  0  0  0  0  0  0  0
   -0.7350   13.8830    0.2230 N   0  0  0  0  0  0  0  0  0  0  0  0
   -2.9800   14.9800   -3.8260 C   0  0  0  0  0  0  0  0  0  0  0  0
   -2.0600   16.1200   -4.2850 C   0  0  0  0  0  0  0  0  0  0  0  0
   -1.7950   16.3630   -5.6320 O   0  0  0  0  0  0  0  0  0  0  0  0
   -1.8260   17.9170   -6.0630 P   0  0  1  0  0  0  0  0  0  0  0  0
   -0.3620   18.3960   -6.4530 O   0  0  0  0  0  0  0  0  0  0  0  0
   -2.7740   18.1890   -7.1310 O   0  0  0  0  0  0  0  0  0  0  0  0
   -2.0550   18.7550   -4.7220 O   0  0  0  0  0  0  0  0  0  0  0  0
   -0.1970   19.4470   -7.6510 P   0  0  0  0  0  0  0  0  0  0  0  0
   -1.6440   20.0240   -7.9770 O   0  0  0  0  0  0  0  0  0  0  0  0
    0.8390   20.5000   -7.5320 O   0  0  0  0  0  0  0  0  0  0  0  0
    0.0560   18.4580   -8.8590 O   0  0  0  0  0  0  0  0  0  0  0  0
  2  1  1  1
  2  3  1  0
  2  4  1  0
  3  5  1  0
  3  6  1  6
  4  7  1  0
  5  8  1  6
  6  9  1  0
  8  9  1  0
  5 10  1  0
  7 10  1  0
  9 11  1  6
 11 12  1  0
 12 13  1  0
 13 14  1  0
 14 15  1  0
 14 16  2  0
 14 17  1  1
 15 18  1  0
 18 19  1  0
 18 20  2  0
 18 21  1  0
M  END
>  <%Rank>  (468) 
35.648855

>  <N_hits>  (468) 
2

>  <submitter_name>  (468) 
nan

>  <original SMILES>  (468) 
nan

>  <∆G_unbound>  (468) 
2.479234

>  <∆G_bound>  (468) 
-7.654063

>  <regarded>  (468) 
5LW0_0_A_δ,mArh-5cms_C_2_C_β

>  <ref_pdb>  (468) 
nan

>  <smiles>  (468) 
NC1NCNC2NC(CCOP(=O)(O)OP(=O)(O)O)NC12

>  <submitter_email>  (468) 
nan

>  <disregarded>  (468) 


>  <LE>  (468) 
-0.482538

>  <submitter_institution>  (468) 
nan

>  <ref_mols>  (468) 
5LW0_0_A,mArh-5cms_C_2_C

>  <N_constrained_atoms>  (468) 
19.0

>  <ref_url>  (468) 
nan

>  <method>  (468) 
nan

>  <comRMSD>  (468) 
0.723644

>  <N_unconstrained_atoms>  (468) 
2.0

>  <∆∆G>  (468) 
-10.133296

>  <runtime>  (468) 
26.895989

>  <generation_date>  (468) 
nan

$$$$
mArh-5cms_O_14_O_γ-mArh-5cb5_M_1_M_β
     RDKit          3D

 16 16  0  0  0  0  0  0  0  0999 V2000
   -1.3680   12.6020   -4.1390 O   0  0  0  0  0  0  0  0  0  0  0  0
   -0.2430   13.4450   -3.9940 C   0  0  2  0  0  0  0  0  0  0  0  0
   -0.3420   14.4220   -2.8190 C   0  0  0  0  0  0  0  0  0  0  0  0
   -0.0210   14.3480   -5.2000 C   0  0  2  0  0  0  0  0  0  0  0  0
    1.3920   14.2810   -5.4210 O   0  0  0  0  0  0  0  0  0  0  0  0
   -0.0170   15.7280   -3.3280 O   0  0  0  0  0  0  0  0  0  0  0  0
   -0.5280   15.7030   -4.6680 C   0  0  1  0  0  0  0  0  0  0  0  0
   -0.1060   17.0010   -5.3600 C   0  0  0  0  0  0  0  0  0  0  0  0
   -1.4230   18.1580   -5.8910 P   0  0  1  0  0  0  0  0  0  0  0  0
   -0.6840   19.3890   -6.5150 O   0  0  0  0  0  0  0  0  0  0  0  0
   -2.4940   17.5820   -6.7750 O   0  0  0  0  0  0  0  0  0  0  0  0
   -2.0200   18.9180   -4.6270 O   0  0  0  0  0  0  0  0  0  0  0  0
   -0.2760   19.7360   -7.9560 P   0  0  0  0  0  0  0  0  0  0  0  0
   -1.5190   20.5880   -8.4600 O   0  0  0  0  0  0  0  0  0  0  0  0
    0.1050   18.6390   -8.8630 O   0  0  0  0  0  0  0  0  0  0  0  0
    0.8240   20.8770   -7.7830 O   0  0  0  0  0  0  0  0  0  0  0  0
  2  1  1  6
  2  3  1  0
  2  4  1  0
  4  5  1  1
  3  6  1  0
  4  7  1  0
  6  7  1  0
  7  8  1  6
  8  9  1  0
  9 10  1  0
  9 11  2  0
  9 12  1  1
 10 13  1  0
 13 14  1  0
 13 15  2  0
 13 16  1  0
M  END
>  <%Rank>  (469) 
35.725191

>  <N_hits>  (469) 
2

>  <submitter_name>  (469) 
nan

>  <original SMILES>  (469) 
nan

>  <∆G_unbound>  (469) 
1.057928

>  <∆G_bound>  (469) 
-10.120966

>  <regarded>  (469) 
mArh-5cms_O_14_O_γ,mArh-5cb5_M_1_M_β

>  <ref_pdb>  (469) 
nan

>  <smiles>  (469) 
O=P(O)(O)OP(=O)(O)CC1OCC(O)C1O

>  <submitter_email>  (469) 
nan

>  <disregarded>  (469) 


>  <LE>  (469) 
-0.698681

>  <submitter_institution>  (469) 
nan

>  <ref_mols>  (469) 
mArh-5cms_O_14_O,mArh-5cb5_M_1_M

>  <N_constrained_atoms>  (469) 
16.0

>  <ref_url>  (469) 
nan

>  <method>  (469) 
nan

>  <comRMSD>  (469) 
0.820351

>  <N_unconstrained_atoms>  (469) 
0.0

>  <∆∆G>  (469) 
-11.178893

>  <runtime>  (469) 
27.394738

>  <generation_date>  (469) 
nan

$$$$
mArh-5cb5_B_0_B_β-5CB5_0_D_β
     RDKit          3D

  9  8  0  0  0  0  0  0  0  0999 V2000
   -1.6440   20.3380   -8.2200 O   0  0  0  0  0  0  0  0  0  0  0  0
   -0.2220   19.7890   -7.7570 P   0  0  0  0  0  0  0  0  0  0  0  0
   -0.4330   19.0020   -6.4250 O   0  0  0  0  0  0  0  0  0  0  0  0
    0.8220   20.8370   -7.7530 O   0  0  0  0  0  0  0  0  0  0  0  0
    0.0450   18.6470   -8.8420 O   0  0  0  0  0  0  0  0  0  0  0  0
   -1.7220   18.2350   -5.9560 P   0  0  0  0  0  0  0  0  0  0  0  0
   -1.1990   16.8540   -5.3670 O   0  0  0  0  0  0  0  0  0  0  0  0
   -2.7400   18.0720   -7.0080 O   0  0  0  0  0  0  0  0  0  0  0  0
   -2.1840   19.0830   -4.6950 O   0  0  0  0  0  0  0  0  0  0  0  0
  1  2  1  0
  2  3  1  0
  2  4  2  0
  2  5  1  0
  3  6  1  0
  6  7  1  0
  6  8  2  0
  6  9  1  0
M  END
>  <%Rank>  (470) 
35.801527

>  <N_hits>  (470) 
2

>  <submitter_name>  (470) 
nan

>  <original SMILES>  (470) 
nan

>  <∆G_unbound>  (470) 
0.687887

>  <∆G_bound>  (470) 
-7.86256

>  <regarded>  (470) 
mArh-5cb5_B_0_B_β,5CB5_0_D_β

>  <ref_pdb>  (470) 
nan

>  <smiles>  (470) 
O=P(O)(O)OP(=O)(O)O

>  <submitter_email>  (470) 
nan

>  <disregarded>  (470) 


>  <LE>  (470) 
-0.95005

>  <submitter_institution>  (470) 
nan

>  <ref_mols>  (470) 
mArh-5cb5_B_0_B,5CB5_0_D

>  <N_constrained_atoms>  (470) 
9.0

>  <ref_url>  (470) 
nan

>  <method>  (470) 
nan

>  <comRMSD>  (470) 
0.746245

>  <N_unconstrained_atoms>  (470) 
0.0

>  <∆∆G>  (470) 
-8.550447

>  <runtime>  (470) 
26.139272

>  <generation_date>  (470) 
nan

$$$$
5CB5_0_E_β-6FX7_0_A_α
     RDKit          3D

 19 19  0  0  0  0  0  0  0  0999 V2000
   -0.9820   20.0900   -9.3140 O   0  0  0  0  0  0  0  0  0  0  0  0
   -0.5180   19.5070   -7.9450 P   0  0  0  0  0  0  0  0  0  0  0  0
   -1.4390   19.8200   -6.6270 N   0  0  0  0  0  0  0  0  0  0  0  0
    0.4250   20.7090   -7.6920 O   0  0  0  0  0  0  0  0  0  0  0  0
    0.7640   18.4910   -7.8000 O   0  0  0  0  0  0  0  0  0  0  0  0
   -1.7750   18.4590   -5.8800 P   0  0  0  0  0  0  0  0  0  0  0  0
   -2.3240   20.8880   -6.8180 C   0  0  0  0  0  0  0  0  0  0  0  0
   -0.2740   17.7810   -5.8630 O   0  0  0  0  0  0  0  0  0  0  0  0
   -2.8090   17.9940   -7.0370 O   0  0  0  0  0  0  0  0  0  0  0  0
   -2.2680   19.3610   -4.6170 O   0  0  0  0  0  0  0  0  0  0  0  0
   -2.1730   22.0150   -7.7780 C   0  0  0  0  0  0  0  0  0  0  0  0
   -3.3020   22.9420   -8.1210 C   0  0  1  0  0  0  0  0  0  0  0  0
   -3.3040   23.4300   -9.4470 O   0  0  0  0  0  0  0  0  0  0  0  0
   -4.5860   22.0290   -8.1370 C   0  0  1  0  0  0  0  0  0  0  0  0
   -5.2770   22.1630   -6.9670 O   0  0  0  0  0  0  0  0  0  0  0  0
   -4.2640   22.7740  -10.2050 C   0  0  1  0  0  0  0  0  0  0  0  0
   -5.3770   22.6340   -9.2580 C   0  0  2  0  0  0  0  0  0  0  0  0
   -4.6230   23.5050  -11.3210 O   0  0  0  0  0  0  0  0  0  0  0  0
   -5.9630   23.8420   -8.9630 O   0  0  0  0  0  0  0  0  0  0  0  0
  1  2  1  0
  2  3  1  0
  2  4  1  0
  2  5  1  0
  3  6  1  0
  3  7  1  0
  6  8  1  0
  6  9  1  0
  6 10  1  0
  7 11  1  0
 12 11  1  6
 12 13  1  0
 12 14  1  0
 14 15  1  1
 13 16  1  0
 14 17  1  0
 16 17  1  0
 16 18  1  6
 17 19  1  1
M  CHG  2   4  -1   9  -1
M  END
>  <%Rank>  (471) 
35.877863

>  <N_hits>  (471) 
2

>  <submitter_name>  (471) 
nan

>  <original SMILES>  (471) 
nan

>  <∆G_unbound>  (471) 
2.473017

>  <∆G_bound>  (471) 
-6.063045

>  <regarded>  (471) 
5CB5_0_E_β,6FX7_0_A_α

>  <ref_pdb>  (471) 
nan

>  <smiles>  (471) 
[O-][PH](O)(O)N(CCC1OC(O)C(O)C1O)[PH]([O-])(O)O

>  <submitter_email>  (471) 
nan

>  <disregarded>  (471) 


>  <LE>  (471) 
-0.449266

>  <submitter_institution>  (471) 
nan

>  <ref_mols>  (471) 
5CB5_0_E,6FX7_0_A

>  <N_constrained_atoms>  (471) 
18.0

>  <ref_url>  (471) 
nan

>  <method>  (471) 
nan

>  <comRMSD>  (471) 
0.713495

>  <N_unconstrained_atoms>  (471) 
1.0

>  <∆∆G>  (471) 
-8.536062

>  <runtime>  (471) 
40.080595

>  <generation_date>  (471) 
nan

$$$$
5CB5_0_D_γ-5CMS_0_E_β
     RDKit          3D

 16 16  0  0  0  0  0  0  0  0999 V2000
    0.4430   12.6790   -4.1270 O   0  0  0  0  0  0  0  0  0  0  0  0
   -0.3130   13.8360   -4.0030 C   0  0  1  0  0  0  0  0  0  0  0  0
    0.1840   14.7520   -2.8880 C   0  0  0  0  0  0  0  0  0  0  0  0
   -0.1820   14.6790   -5.2230 C   0  0  2  0  0  0  0  0  0  0  0  0
    1.0840   14.4270   -5.7430 O   0  0  0  0  0  0  0  0  0  0  0  0
    0.5370   15.9570   -3.5230 O   0  0  0  0  0  0  0  0  0  0  0  0
   -0.3180   16.0100   -4.5950 C   0  0  1  0  0  0  0  0  0  0  0  0
   -0.1650   17.2650   -5.4570 C   0  0  0  0  0  0  0  0  0  0  0  0
   -1.7440   17.9500   -5.7270 P   0  0  0  0  0  0  0  0  0  0  0  0
   -1.6280   18.6280   -7.0790 O   0  0  0  0  0  0  0  0  0  0  0  0
   -2.8770   17.0170   -6.5880 O   0  0  0  0  0  0  0  0  0  0  0  0
   -2.2220   19.3100   -5.0310 O   0  0  0  0  0  0  0  0  0  0  0  0
   -0.4010   19.3460   -7.7870 P   0  0  0  0  0  0  0  0  0  0  0  0
   -1.3820   20.2140   -8.5690 O   0  0  0  0  0  0  0  0  0  0  0  0
    0.3340   20.7940   -7.3960 O   0  0  0  0  0  0  0  0  0  0  0  0
    0.1960   18.5520   -9.0690 O   0  0  0  0  0  0  0  0  0  0  0  0
  2  1  1  6
  2  3  1  0
  2  4  1  0
  4  5  1  1
  3  6  1  0
  4  7  1  0
  6  7  1  0
  7  8  1  6
  8  9  1  0
  9 10  1  0
  9 11  1  0
  9 12  1  0
 10 13  1  0
 13 14  1  0
 13 15  1  0
 13 16  1  0
M  CHG  2  11  -1  15  -1
M  END
>  <%Rank>  (472) 
35.954198

>  <N_hits>  (472) 
2

>  <submitter_name>  (472) 
nan

>  <original SMILES>  (472) 
nan

>  <∆G_unbound>  (472) 
0.683631

>  <∆G_bound>  (472) 
-7.337408

>  <regarded>  (472) 
5CB5_0_D_γ,5CMS_0_E_β

>  <ref_pdb>  (472) 
nan

>  <smiles>  (472) 
[O-][PH](O)(O)O[PH]([O-])(O)CC1OCC(O)C1O

>  <submitter_email>  (472) 
nan

>  <disregarded>  (472) 


>  <LE>  (472) 
-0.501315

>  <submitter_institution>  (472) 
nan

>  <ref_mols>  (472) 
5CB5_0_D,5CMS_0_E

>  <N_constrained_atoms>  (472) 
16.0

>  <ref_url>  (472) 
nan

>  <method>  (472) 
nan

>  <comRMSD>  (472) 
0.723899

>  <N_unconstrained_atoms>  (472) 
0.0

>  <∆∆G>  (472) 
-8.021039

>  <runtime>  (472) 
36.007535

>  <generation_date>  (472) 
nan

$$$$
mArh-EU0144_0_A_α-6WOJ_0_D_α
     RDKit          3D

 23 24  0  0  0  0  0  0  0  0999 V2000
   -8.2500   14.3820    0.5490 C   0  0  0  0  0  0  0  0  0  0  0  0
   -6.8420   14.6530    0.1960 C   0  0  0  0  0  0  0  0  0  0  0  0
   -6.2710   14.7650   -0.9890 N   0  0  0  0  0  0  0  0  0  0  0  0
   -5.9980   14.8190    1.2510 O   0  0  0  0  0  0  0  0  0  0  0  0
   -4.7850   15.0580    0.6820 C   0  0  0  0  0  0  0  0  0  0  0  0
   -4.9510   15.0300   -0.6910 C   0  0  0  0  0  0  0  0  0  0  0  0
   -3.7870   15.2500    1.5560 N   0  0  0  0  0  0  0  0  0  0  0  0
   -3.9700   15.2370   -1.7210 C   0  0  0  0  0  0  0  0  0  0  0  0
   -3.1160   15.4750   -2.5650 C   0  0  0  0  0  0  0  0  0  0  0  0
   -2.0100   15.8030   -3.5200 C   0  0  0  0  0  0  0  0  0  0  0  0
   -2.3970   16.4800   -4.8650 C   0  0  0  0  0  0  0  0  0  0  0  0
   -1.6840   17.8330   -5.2060 C   0  0  0  0  0  0  0  0  0  0  0  0
   -2.3810   18.8320   -6.1770 C   0  0  0  0  0  0  0  0  0  0  0  0
   -2.6810   20.1740   -5.4600 C   0  0  0  0  0  0  0  0  0  0  0  0
   -3.9650   20.8100   -5.7300 O   0  0  0  0  0  0  0  0  0  0  0  0
   -3.5800   21.7830   -6.6680 C   0  0  1  0  0  0  0  0  0  0  0  0
   -3.9030   21.3250   -7.9390 O   0  0  0  0  0  0  0  0  0  0  0  0
   -4.0510   23.2520   -6.6880 C   0  0  2  0  0  0  0  0  0  0  0  0
   -5.4300   23.5980   -6.5530 O   0  0  0  0  0  0  0  0  0  0  0  0
   -3.0080   22.1840   -8.5830 C   0  0  1  0  0  0  0  0  0  0  0  0
   -3.4870   23.5670   -8.0960 C   0  0  1  0  0  0  0  0  0  0  0  0
   -1.6030   21.7660   -8.1440 C   0  0  0  0  0  0  0  0  0  0  0  0
   -4.4670   24.1270   -8.9590 O   0  0  0  0  0  0  0  0  0  0  0  0
  1  2  1  0
  2  3  2  0
  2  4  1  0
  4  5  1  0
  3  6  1  0
  5  6  2  0
  5  7  1  0
  6  8  1  0
  8  9  3  0
  9 10  1  0
 10 11  1  0
 11 12  1  0
 12 13  1  0
 13 14  1  0
 14 15  1  0
 16 15  1  1
 16 17  1  0
 16 18  1  0
 18 19  1  6
 17 20  1  0
 18 21  1  0
 20 21  1  0
 20 22  1  1
 21 23  1  6
M  END
>  <%Rank>  (473) 
36.030534

>  <N_hits>  (473) 
2

>  <submitter_name>  (473) 
nan

>  <original SMILES>  (473) 
nan

>  <∆G_unbound>  (473) 
0.011853

>  <∆G_bound>  (473) 
-11.696828

>  <regarded>  (473) 
mArh-EU0144_0_A_α,6WOJ_0_D_α

>  <ref_pdb>  (473) 
nan

>  <smiles>  (473) 
Cc1nc(C#CCCCCCOC2OC(C)C(O)C2O)c(N)o1

>  <submitter_email>  (473) 
nan

>  <disregarded>  (473) 


>  <LE>  (473) 
-0.509073

>  <submitter_institution>  (473) 
nan

>  <ref_mols>  (473) 
mArh-EU0144_0_A,6WOJ_0_D

>  <N_constrained_atoms>  (473) 
18.0

>  <ref_url>  (473) 
nan

>  <method>  (473) 
nan

>  <comRMSD>  (473) 
0.633618

>  <N_unconstrained_atoms>  (473) 
5.0

>  <∆∆G>  (473) 
-11.708681

>  <runtime>  (473) 
63.358865

>  <generation_date>  (473) 
nan

$$$$
5DUS_0_A_β-5LW0_0_A_γ
     RDKit          3D

 16 16  0  0  0  0  0  0  0  0999 V2000
   -1.6030   20.6970   -7.9930 O   0  0  0  0  0  0  0  0  0  0  0  0
   -0.5570   19.4520   -7.6480 P   0  0  0  0  0  0  0  0  0  0  0  0
   -0.4070   18.8680   -6.0980 O   0  0  0  0  0  0  0  0  0  0  0  0
    0.5530   20.4760   -7.4360 O   0  0  0  0  0  0  0  0  0  0  0  0
    0.1450   18.6620   -8.8300 O   0  0  0  0  0  0  0  0  0  0  0  0
   -1.6350   17.8960   -5.7160 P   0  0  0  0  0  0  0  0  0  0  0  0
   -0.8400   16.5120   -5.6520 O   0  0  0  0  0  0  0  0  0  0  0  0
   -2.6260   17.1880   -6.8750 O   0  0  0  0  0  0  0  0  0  0  0  0
   -2.2420   17.7600   -4.2970 O   0  0  0  0  0  0  0  0  0  0  0  0
    0.0010   15.8490   -4.6950 C   0  0  1  0  0  0  0  0  0  0  0  0
   -0.4560   15.9000   -3.3800 O   0  0  0  0  0  0  0  0  0  0  0  0
    0.2830   14.3880   -4.9510 C   0  0  1  0  0  0  0  0  0  0  0  0
    1.6570   14.0570   -4.9470 O   0  0  0  0  0  0  0  0  0  0  0  0
   -1.1880   14.7220   -3.1530 C   0  0  0  0  0  0  0  0  0  0  0  0
   -0.2100   13.6820   -3.6800 C   0  0  1  0  0  0  0  0  0  0  0  0
   -0.7910   12.4890   -4.0230 O   0  0  0  0  0  0  0  0  0  0  0  0
  1  2  1  0
  2  3  1  0
  2  4  1  0
  2  5  1  0
  3  6  1  0
  6  7  1  0
  6  8  1  0
  6  9  1  0
 10  7  1  6
 10 11  1  0
 10 12  1  0
 12 13  1  1
 11 14  1  0
 12 15  1  0
 14 15  1  0
 15 16  1  6
M  CHG  2   4  -1   8  -1
M  END
>  <%Rank>  (474) 
36.10687

>  <N_hits>  (474) 
2

>  <submitter_name>  (474) 
nan

>  <original SMILES>  (474) 
nan

>  <∆G_unbound>  (474) 
1.160673

>  <∆G_bound>  (474) 
-5.491808

>  <regarded>  (474) 
5DUS_0_A_β,5LW0_0_A_γ

>  <ref_pdb>  (474) 
nan

>  <smiles>  (474) 
[O-][PH](O)(O)O[PH]([O-])(O)OC1OCC(O)C1O

>  <submitter_email>  (474) 
nan

>  <disregarded>  (474) 


>  <LE>  (474) 
-0.41578

>  <submitter_institution>  (474) 
nan

>  <ref_mols>  (474) 
5DUS_0_A,5LW0_0_A

>  <N_constrained_atoms>  (474) 
16.0

>  <ref_url>  (474) 
nan

>  <method>  (474) 
nan

>  <comRMSD>  (474) 
0.682069

>  <N_unconstrained_atoms>  (474) 
0.0

>  <∆∆G>  (474) 
-6.652481

>  <runtime>  (474) 
30.07117

>  <generation_date>  (474) 
nan

$$$$
mArh-5cms_N_13_N_β-5CMS_0_F_β
     RDKit          3D

  9  8  0  0  0  0  0  0  0  0999 V2000
   -1.2810   20.5900   -8.8830 O   0  0  0  0  0  0  0  0  0  0  0  0
   -0.3510   19.8000   -7.8700 P   0  0  0  0  0  0  0  0  0  0  0  0
   -1.3220   19.4910   -6.6880 O   0  0  0  0  0  0  0  0  0  0  0  0
    0.9120   20.5020   -7.5690 O   0  0  0  0  0  0  0  0  0  0  0  0
   -0.1430   18.4550   -8.7110 O   0  0  0  0  0  0  0  0  0  0  0  0
   -1.6720   18.0760   -6.1050 P   0  0  0  0  0  0  0  0  0  0  0  0
   -0.3140   17.2600   -6.2000 O   0  0  0  0  0  0  0  0  0  0  0  0
   -2.8080   17.4270   -6.7850 O   0  0  0  0  0  0  0  0  0  0  0  0
   -1.8180   18.2900   -4.5470 O   0  0  0  0  0  0  0  0  0  0  0  0
  1  2  1  0
  2  3  1  0
  2  4  2  0
  2  5  1  0
  3  6  1  0
  6  7  1  0
  6  8  2  0
  6  9  1  0
M  END
>  <%Rank>  (475) 
36.183206

>  <N_hits>  (475) 
2

>  <submitter_name>  (475) 
nan

>  <original SMILES>  (475) 
nan

>  <∆G_unbound>  (475) 
0.687887

>  <∆G_bound>  (475) 
-6.932269

>  <regarded>  (475) 
mArh-5cms_N_13_N_β,5CMS_0_F_β

>  <ref_pdb>  (475) 
nan

>  <smiles>  (475) 
O=P(O)(O)OP(=O)(O)O

>  <submitter_email>  (475) 
nan

>  <disregarded>  (475) 


>  <LE>  (475) 
-0.846684

>  <submitter_institution>  (475) 
nan

>  <ref_mols>  (475) 
mArh-5cms_N_13_N,5CMS_0_F

>  <N_constrained_atoms>  (475) 
9.0

>  <ref_url>  (475) 
nan

>  <method>  (475) 
nan

>  <comRMSD>  (475) 
0.696525

>  <N_unconstrained_atoms>  (475) 
0.0

>  <∆∆G>  (475) 
-7.620156

>  <runtime>  (475) 
25.508786

>  <generation_date>  (475) 
nan

$$$$
5CMS_0_J_γ-mArh-5l9k_B_0_B_β
     RDKit          3D

 18 18  0  0  0  0  0  0  0  0999 V2000
   -1.8770   12.2850   -4.0540 O   0  0  0  0  0  0  0  0  0  0  0  0
   -1.5020   13.6490   -4.3000 C   0  0  1  0  0  0  0  0  0  0  0  0
   -1.3230   14.4030   -2.9960 C   0  0  0  0  0  0  0  0  0  0  0  0
   -0.0970   13.6880   -4.8900 C   0  0  2  0  0  0  0  0  0  0  0  0
    0.6180   12.4890   -4.6370 O   0  0  0  0  0  0  0  0  0  0  0  0
   -0.4020   15.4630   -3.2880 O   0  0  0  0  0  0  0  0  0  0  0  0
    0.5330   14.9140   -4.2270 C   0  0  2  0  0  0  0  0  0  0  0  0
    1.0300   15.9540   -5.1870 C   0  0  0  0  0  0  0  0  0  0  0  0
    0.3970   17.3280   -5.1620 C   0  0  0  0  0  0  0  0  0  0  0  0
   -0.5510   17.3360   -6.2080 O   0  0  0  0  0  0  0  0  0  0  0  0
   -1.8810   18.1250   -5.9620 P   0  0  2  0  0  0  0  0  0  0  0  0
   -1.6110   19.5670   -6.5390 O   0  0  0  0  0  0  0  0  0  0  0  0
   -2.3510   17.9890   -4.5870 O   0  0  0  0  0  0  0  0  0  0  0  0
   -2.9270   17.4790   -6.9730 O   0  0  0  0  0  0  0  0  0  0  0  0
   -0.8040   19.7920   -7.8780 P   0  0  0  0  0  0  0  0  0  0  0  0
   -1.8180   20.7450   -8.6580 O   0  0  0  0  0  0  0  0  0  0  0  0
   -0.3760   18.6040   -8.6770 O   0  0  0  0  0  0  0  0  0  0  0  0
    0.3610   20.8290   -7.5830 O   0  0  0  0  0  0  0  0  0  0  0  0
  2  1  1  1
  2  3  1  0
  2  4  1  0
  4  5  1  1
  3  6  1  0
  4  7  1  0
  6  7  1  0
  7  8  1  6
  8  9  1  0
  9 10  1  0
 10 11  1  0
 11 12  1  0
 11 13  2  0
 11 14  1  6
 12 15  1  0
 15 16  1  0
 15 17  2  0
 15 18  1  0
M  END
>  <%Rank>  (476) 
36.259542

>  <N_hits>  (476) 
2

>  <submitter_name>  (476) 
nan

>  <original SMILES>  (476) 
nan

>  <∆G_unbound>  (476) 
1.594509

>  <∆G_bound>  (476) 
-9.12752

>  <regarded>  (476) 
5CMS_0_J_γ,mArh-5l9k_B_0_B_β

>  <ref_pdb>  (476) 
nan

>  <smiles>  (476) 
O=P(O)(O)OP(=O)(O)OCCC1OCC(O)C1O

>  <submitter_email>  (476) 
nan

>  <disregarded>  (476) 


>  <LE>  (476) 
-0.595668

>  <submitter_institution>  (476) 
nan

>  <ref_mols>  (476) 
5CMS_0_J,mArh-5l9k_B_0_B

>  <N_constrained_atoms>  (476) 
17.0

>  <ref_url>  (476) 
nan

>  <method>  (476) 
nan

>  <comRMSD>  (476) 
0.765496

>  <N_unconstrained_atoms>  (476) 
1.0

>  <∆∆G>  (476) 
-10.722028

>  <runtime>  (476) 
36.577833

>  <generation_date>  (476) 
nan

$$$$
2BFQ_1_A_β-5CB5_0_J_α
     RDKit          3D

 17 17  0  0  0  0  0  0  0  0999 V2000
   -1.7410   21.4090   -8.9240 O   0  0  0  0  0  0  0  0  0  0  0  0
   -0.7790   20.5150   -7.8470 P   0  0  0  0  0  0  0  0  0  0  0  0
   -1.4570   19.9060   -6.4950 O   0  0  0  0  0  0  0  0  0  0  0  0
   -3.1110   21.7000   -8.6870 C   0  0  1  0  0  0  0  0  0  0  0  0
   -1.0150   19.1720   -8.5360 O   0  0  0  0  0  0  0  0  0  0  0  0
   -0.3960   21.8440   -7.2140 O   0  0  0  0  0  0  0  0  0  0  0  0
   -3.6360   21.1820   -7.5460 O   0  0  0  0  0  0  0  0  0  0  0  0
   -3.3580   23.2380   -8.4910 C   0  0  1  0  0  0  0  0  0  0  0  0
   -1.3780   18.4450   -6.0190 P   0  0  0  0  0  0  0  0  0  0  0  0
   -3.9990   23.7480   -9.6160 O   0  0  0  0  0  0  0  0  0  0  0  0
   -4.7990   21.8550   -7.2870 C   0  0  2  0  0  0  0  0  0  0  0  0
   -4.4170   23.2930   -7.3790 C   0  0  2  0  0  0  0  0  0  0  0  0
   -1.1300   17.0280   -5.4880 O   0  0  0  0  0  0  0  0  0  0  0  0
   -1.7440   18.9850   -4.5230 O   0  0  0  0  0  0  0  0  0  0  0  0
   -2.6280   17.9650   -6.9630 O   0  0  0  0  0  0  0  0  0  0  0  0
   -5.4260   21.5710   -6.0780 O   0  0  0  0  0  0  0  0  0  0  0  0
   -5.4600   24.0700   -7.9220 O   0  0  0  0  0  0  0  0  0  0  0  0
  1  2  1  0
  2  3  1  0
  4  1  1  1
  2  5  1  0
  2  6  1  0
  4  7  1  0
  4  8  1  0
  3  9  1  0
  8 10  1  6
  7 11  1  0
  8 12  1  0
 11 12  1  0
  9 13  1  0
  9 14  1  0
  9 15  1  0
 11 16  1  1
 12 17  1  6
M  CHG  2   5  -1  14  -1
M  END
>  <%Rank>  (477) 
36.335878

>  <N_hits>  (477) 
2

>  <submitter_name>  (477) 
nan

>  <original SMILES>  (477) 
nan

>  <∆G_unbound>  (477) 
0.972863

>  <∆G_bound>  (477) 
-7.031763

>  <regarded>  (477) 
2BFQ_1_A_β,5CB5_0_J_α

>  <ref_pdb>  (477) 
nan

>  <smiles>  (477) 
[O-][PH](O)(O)O[PH]([O-])(O)OC1OC(O)C(O)C1O

>  <submitter_email>  (477) 
nan

>  <disregarded>  (477) 


>  <LE>  (477) 
-0.47086

>  <submitter_institution>  (477) 
nan

>  <ref_mols>  (477) 
2BFQ_1_A,5CB5_0_J

>  <N_constrained_atoms>  (477) 
17.0

>  <ref_url>  (477) 
nan

>  <method>  (477) 
nan

>  <comRMSD>  (477) 
0.73262

>  <N_unconstrained_atoms>  (477) 
0.0

>  <∆∆G>  (477) 
-8.004627

>  <runtime>  (477) 
28.979141

>  <generation_date>  (477) 
nan

$$$$
mArh-5cms_M_12_M_β-4IQY_0_A_β
     RDKit          3D

  9  8  0  0  0  0  0  0  0  0999 V2000
   -1.6890   20.2840   -8.1110 O   0  0  0  0  0  0  0  0  0  0  0  0
   -0.2330   19.7170   -7.7810 P   0  0  0  0  0  0  0  0  0  0  0  0
   -0.3450   18.7750   -6.5390 O   0  0  0  0  0  0  0  0  0  0  0  0
    0.8040   20.7730   -7.7420 O   0  0  0  0  0  0  0  0  0  0  0  0
    0.0150   18.6630   -8.9470 O   0  0  0  0  0  0  0  0  0  0  0  0
   -1.6700   18.1210   -6.0000 P   0  0  0  0  0  0  0  0  0  0  0  0
   -1.2240   16.8190   -5.2010 O   0  0  0  0  0  0  0  0  0  0  0  0
   -2.6760   17.8480   -7.0380 O   0  0  0  0  0  0  0  0  0  0  0  0
   -2.1430   19.1550   -4.8900 O   0  0  0  0  0  0  0  0  0  0  0  0
  1  2  1  0
  2  3  1  0
  2  4  2  0
  2  5  1  0
  3  6  1  0
  6  7  1  0
  6  8  2  0
  6  9  1  0
M  END
>  <%Rank>  (478) 
36.412214

>  <N_hits>  (478) 
2

>  <submitter_name>  (478) 
nan

>  <original SMILES>  (478) 
nan

>  <∆G_unbound>  (478) 
0.687887

>  <∆G_bound>  (478) 
-8.172131

>  <regarded>  (478) 
mArh-5cms_M_12_M_β,4IQY_0_A_β

>  <ref_pdb>  (478) 
nan

>  <smiles>  (478) 
O=P(O)(O)OP(=O)(O)O

>  <submitter_email>  (478) 
nan

>  <disregarded>  (478) 


>  <LE>  (478) 
-0.984447

>  <submitter_institution>  (478) 
nan

>  <ref_mols>  (478) 
mArh-5cms_M_12_M,4IQY_0_A

>  <N_constrained_atoms>  (478) 
9.0

>  <ref_url>  (478) 
nan

>  <method>  (478) 
nan

>  <comRMSD>  (478) 
0.765759

>  <N_unconstrained_atoms>  (478) 
0.0

>  <∆∆G>  (478) 
-8.860019

>  <runtime>  (478) 
26.961215

>  <generation_date>  (478) 
nan

$$$$
mArh-5l9k_A_0_A_α-mArh-5cb5_O_0_O_β
     RDKit          3D

 17 17  0  0  0  0  0  0  0  0999 V2000
   -2.1020   21.4160   -7.4840 C   0  0  0  0  0  0  0  0  0  0  0  0
   -0.6870   20.3060   -7.8130 P   0  0  2  0  0  0  0  0  0  0  0  0
   -0.5080   19.3740   -6.5430 O   0  0  0  0  0  0  0  0  0  0  0  0
   -3.2710   21.7370   -8.4480 C   0  0  1  0  0  0  0  0  0  0  0  0
    0.6110   20.9680   -8.1120 O   0  0  0  0  0  0  0  0  0  0  0  0
   -1.0270   19.1100   -8.8160 O   0  0  0  0  0  0  0  0  0  0  0  0
   -4.4100   20.9280   -8.0820 O   0  0  0  0  0  0  0  0  0  0  0  0
   -3.8200   23.1860   -8.3050 C   0  0  1  0  0  0  0  0  0  0  0  0
   -4.6860   23.6300   -9.3640 O   0  0  0  0  0  0  0  0  0  0  0  0
   -1.5920   18.3370   -6.0370 P   0  0  0  0  0  0  0  0  0  0  0  0
   -5.2270   21.6730   -7.1750 C   0  0  1  0  0  0  0  0  0  0  0  0
   -4.5920   23.0560   -6.9920 C   0  0  2  0  0  0  0  0  0  0  0  0
   -6.5340   21.7380   -7.6950 O   0  0  0  0  0  0  0  0  0  0  0  0
   -5.6260   24.0510   -6.8510 O   0  0  0  0  0  0  0  0  0  0  0  0
   -0.7780   17.1740   -5.3200 O   0  0  0  0  0  0  0  0  0  0  0  0
   -2.5820   17.8270   -7.0030 O   0  0  0  0  0  0  0  0  0  0  0  0
   -2.2420   19.1400   -4.8240 O   0  0  0  0  0  0  0  0  0  0  0  0
  1  2  1  0
  2  3  1  0
  4  1  1  1
  2  5  2  0
  2  6  1  6
  4  7  1  0
  4  8  1  0
  8  9  1  6
  3 10  1  0
  7 11  1  0
  8 12  1  0
 11 12  1  0
 11 13  1  6
 12 14  1  6
 10 15  1  0
 10 16  2  0
 10 17  1  0
M  END
>  <%Rank>  (479) 
36.48855

>  <N_hits>  (479) 
2

>  <submitter_name>  (479) 
nan

>  <original SMILES>  (479) 
nan

>  <∆G_unbound>  (479) 
1.703844

>  <∆G_bound>  (479) 
-10.787307

>  <regarded>  (479) 
mArh-5l9k_A_0_A_α,mArh-5cb5_O_0_O_β

>  <ref_pdb>  (479) 
nan

>  <smiles>  (479) 
O=P(O)(O)OP(=O)(O)CC1OC(O)C(O)C1O

>  <submitter_email>  (479) 
nan

>  <disregarded>  (479) 


>  <LE>  (479) 
-0.734774

>  <submitter_institution>  (479) 
nan

>  <ref_mols>  (479) 
mArh-5l9k_A_0_A,mArh-5cb5_O_0_O

>  <N_constrained_atoms>  (479) 
17.0

>  <ref_url>  (479) 
nan

>  <method>  (479) 
nan

>  <comRMSD>  (479) 
0.865397

>  <N_unconstrained_atoms>  (479) 
0.0

>  <∆∆G>  (479) 
-12.491151

>  <runtime>  (479) 
34.756565

>  <generation_date>  (479) 
nan

$$$$
mArh-x0253_0_A_α-mArh-1spv_0_A_α
     RDKit          3D

 31 32  0  0  0  0  0  0  0  0999 V2000
    0.4480   11.4270   -4.9070 N   0  0  0  0  0  0  0  0  0  0  0  0
    0.6270   11.8270   -6.1970 C   0  0  0  0  0  0  0  0  0  0  0  0
    1.0770   13.0090   -6.3850 N   0  0  0  0  0  0  0  0  0  0  0  0
    1.0360   12.2670   -3.8510 C   0  0  0  0  0  0  0  0  0  0  0  0
    0.4870   11.8640   -2.5120 C   0  0  0  0  0  0  0  0  0  0  0  0
    0.2590   10.8670   -7.3310 C   0  0  0  0  0  0  0  0  0  0  0  0
    0.6920   12.4100   -1.4410 O   0  0  0  0  0  0  0  0  0  0  0  0
   -0.3050   10.7830   -2.6010 O   0  0  0  0  0  0  0  0  0  0  0  0
    1.3760   13.7800   -5.1520 C   0  0  0  0  0  0  0  0  0  0  0  0
   -0.7320    9.9170   -7.0540 C   0  0  0  0  0  0  0  0  0  0  0  0
    0.8300   10.8550   -8.6170 C   0  0  0  0  0  0  0  0  0  0  0  0
    1.1400   15.3110   -5.2090 C   0  0  0  0  0  0  0  0  0  0  0  0
   -1.1480    8.9890   -8.0170 C   0  0  0  0  0  0  0  0  0  0  0  0
    0.4220    9.9360   -9.5830 C   0  0  0  0  0  0  0  0  0  0  0  0
   -2.2140    7.9900   -7.6780 C   0  0  0  0  0  0  0  0  0  0  0  0
   -0.2950   15.7890   -4.9880 C   0  0  0  0  0  0  0  0  0  0  0  0
   -0.5670    9.0020   -9.2860 C   0  0  0  0  0  0  0  0  0  0  0  0
   -0.5370   17.2190   -5.5220 C   0  0  0  0  0  0  0  0  0  0  0  0
    0.6790   17.8090   -6.2540 C   0  0  0  0  0  0  0  0  0  0  0  0
    0.2900   18.3870   -7.5810 N   0  0  0  0  0  0  0  0  0  0  0  0
   -0.1220   19.9550   -7.3880 S   0  0  2  0  0  0  0  0  0  0  0  0
    0.9780   20.8440   -7.6850 O   0  0  0  0  0  0  0  0  0  0  0  0
   -0.6790   19.8210   -6.0750 O   0  0  0  0  0  0  0  0  0  0  0  0
   -1.5800   20.3690   -8.2280 C   0  0  0  0  0  0  0  0  0  0  0  0
   -2.1030   21.7340   -7.8860 C   0  0  0  0  0  0  0  0  0  0  0  0
   -3.5440   21.9110   -7.8690 N   0  0  0  0  0  0  0  0  0  0  0  0
   -4.0030   22.4330   -9.1660 C   0  0  0  0  0  0  0  0  0  0  0  0
   -3.8710   22.8910   -6.8190 C   0  0  0  0  0  0  0  0  0  0  0  0
   -5.4910   22.7660   -9.1450 C   0  0  0  0  0  0  0  0  0  0  0  0
   -5.3120   23.3890   -6.9070 C   0  0  0  0  0  0  0  0  0  0  0  0
   -5.6770   23.8370   -8.2200 O   0  0  0  0  0  0  0  0  0  0  0  0
  1  2  1  0
  2  3  2  3
  1  4  1  0
  4  5  1  0
  2  6  1  0
  5  7  2  0
  5  8  1  0
  3  9  1  0
  6 10  2  0
  6 11  1  0
  9 12  1  0
 10 13  1  0
 11 14  2  0
 13 15  1  0
 12 16  1  0
 13 17  2  0
 14 17  1  0
 16 18  1  0
 18 19  1  0
 19 20  1  0
 20 21  2  0
 21 22  2  0
 21 23  1  1
 21 24  1  0
 24 25  1  0
 25 26  1  0
 26 27  1  0
 26 28  1  0
 27 29  1  0
 28 30  1  0
 29 31  1  0
 30 31  1  0
M  CHG  1  23  -1
M  END
>  <%Rank>  (480) 
36.564885

>  <N_hits>  (480) 
2

>  <submitter_name>  (480) 
nan

>  <original SMILES>  (480) 
nan

>  <∆G_unbound>  (480) 
0.869434

>  <∆G_bound>  (480) 
-9.91717

>  <regarded>  (480) 
mArh-x0253_0_A_α,mArh-1spv_0_A_α

>  <ref_pdb>  (480) 
nan

>  <smiles>  (480) 
Cc1cccc(C(=NCCCCCN=S(=O)([O-])CCN2CCOCC2)NCC(=O)O)c1

>  <submitter_email>  (480) 
nan

>  <disregarded>  (480) 


>  <LE>  (480) 
-0.347955

>  <submitter_institution>  (480) 
nan

>  <ref_mols>  (480) 
mArh-x0253_0_A,mArh-1spv_0_A

>  <N_constrained_atoms>  (480) 
26.0

>  <ref_url>  (480) 
nan

>  <method>  (480) 
nan

>  <comRMSD>  (480) 
0.735883

>  <N_unconstrained_atoms>  (480) 
5.0

>  <∆∆G>  (480) 
-10.786604

>  <runtime>  (480) 
58.949916

>  <generation_date>  (480) 
nan

$$$$
mArh-5cb3_0_A_β-4IQY_0_B_β
     RDKit          3D

  9  8  0  0  0  0  0  0  0  0999 V2000
   -1.4780   20.6210   -8.7850 O   0  0  0  0  0  0  0  0  0  0  0  0
   -0.3790   19.9130   -7.8750 P   0  0  0  0  0  0  0  0  0  0  0  0
   -1.1690   19.5100   -6.5780 O   0  0  0  0  0  0  0  0  0  0  0  0
    0.8340   20.7420   -7.7160 O   0  0  0  0  0  0  0  0  0  0  0  0
   -0.1180   18.5990   -8.7470 O   0  0  0  0  0  0  0  0  0  0  0  0
   -1.5980   18.0780   -6.0830 P   0  0  0  0  0  0  0  0  0  0  0  0
   -0.2730   17.2020   -6.0670 O   0  0  0  0  0  0  0  0  0  0  0  0
   -2.7100   17.4820   -6.8480 O   0  0  0  0  0  0  0  0  0  0  0  0
   -1.8640   18.2740   -4.5440 O   0  0  0  0  0  0  0  0  0  0  0  0
  1  2  1  0
  2  3  1  0
  2  4  2  0
  2  5  1  0
  3  6  1  0
  6  7  1  0
  6  8  2  0
  6  9  1  0
M  END
>  <%Rank>  (481) 
36.641221

>  <N_hits>  (481) 
2

>  <submitter_name>  (481) 
nan

>  <original SMILES>  (481) 
nan

>  <∆G_unbound>  (481) 
0.687887

>  <∆G_bound>  (481) 
-7.606663

>  <regarded>  (481) 
mArh-5cb3_0_A_β,4IQY_0_B_β

>  <ref_pdb>  (481) 
nan

>  <smiles>  (481) 
O=P(O)(O)OP(=O)(O)O

>  <submitter_email>  (481) 
nan

>  <disregarded>  (481) 


>  <LE>  (481) 
-0.921617

>  <submitter_institution>  (481) 
nan

>  <ref_mols>  (481) 
mArh-5cb3_0_A,4IQY_0_B

>  <N_constrained_atoms>  (481) 
9.0

>  <ref_url>  (481) 
nan

>  <method>  (481) 
nan

>  <comRMSD>  (481) 
0.736638

>  <N_unconstrained_atoms>  (481) 
0.0

>  <∆∆G>  (481) 
-8.294551

>  <runtime>  (481) 
20.007689

>  <generation_date>  (481) 
nan

$$$$
6MEA_0_A_β-4IQY_0_B_δ
     RDKit          3D

 21 22  0  0  0  0  0  0  0  0999 V2000
   -1.9110   20.4900   -7.6550 O   0  0  0  0  0  0  0  0  0  0  0  0
   -0.6290   19.6610   -7.6210 P   0  0  0  0  0  0  0  0  0  0  0  0
   -1.0560   19.1390   -6.0690 O   0  0  0  0  0  0  0  0  0  0  0  0
    0.3200   20.9570   -7.7580 O   0  0  0  0  0  0  0  0  0  0  0  0
    0.5230   18.6520   -7.6250 O   0  0  0  0  0  0  0  0  0  0  0  0
   -1.5960   17.7170   -5.8050 P   0  0  0  0  0  0  0  0  0  0  0  0
   -0.0250   17.1740   -6.2150 O   0  0  0  0  0  0  0  0  0  0  0  0
   -2.7190   17.8950   -6.9240 O   0  0  0  0  0  0  0  0  0  0  0  0
   -1.8130   17.7380   -4.2410 O   0  0  0  0  0  0  0  0  0  0  0  0
   -1.5910   16.4980   -3.6300 C   0  0  0  0  0  0  0  0  0  0  0  0
   -2.8600   16.0080   -2.9380 C   0  0  0  0  0  0  0  0  0  0  0  0
   -2.9310   14.5960   -2.5000 C   0  0  1  0  0  0  0  0  0  0  0  0
   -1.6050   14.1810   -2.0970 N   0  0  0  0  0  0  0  0  0  0  0  0
   -3.7090   14.6790   -1.2420 N   0  0  0  0  0  0  0  0  0  0  0  0
   -1.4560   14.8400   -0.8690 C   0  0  1  0  0  0  0  0  0  0  0  0
   -2.7810   14.4880   -0.1800 C   0  0  1  0  0  0  0  0  0  0  0  0
   -0.4130   14.3060   -0.0620 N   0  0  0  0  0  0  0  0  0  0  0  0
   -2.8390   15.4430    0.9370 C   0  0  1  0  0  0  0  0  0  0  0  0
   -4.1200   15.4500    1.6510 N   0  0  0  0  0  0  0  0  0  0  0  0
   -0.4920   14.9760    1.2150 C   0  0  0  0  0  0  0  0  0  0  0  0
   -1.8120   14.9680    1.7970 N   0  0  0  0  0  0  0  0  0  0  0  0
  1  2  1  0
  2  3  1  0
  2  4  1  0
  2  5  1  0
  3  6  1  0
  6  7  1  0
  6  8  1  0
  6  9  1  0
  9 10  1  0
 10 11  1  0
 12 11  1  1
 12 13  1  0
 12 14  1  0
 15 13  1  6
 16 14  1  6
 15 16  1  0
 15 17  1  0
 16 18  1  0
 18 19  1  1
 17 20  1  0
 18 21  1  0
 20 21  1  0
M  CHG  2   4  -1   8  -1
M  END
>  <%Rank>  (482) 
36.717557

>  <N_hits>  (482) 
2

>  <submitter_name>  (482) 
nan

>  <original SMILES>  (482) 
nan

>  <∆G_unbound>  (482) 
4.304915

>  <∆G_bound>  (482) 
-6.297403

>  <regarded>  (482) 
6MEA_0_A_β,4IQY_0_B_δ

>  <ref_pdb>  (482) 
nan

>  <smiles>  (482) 
NC1NCNC2NC(CCO[PH]([O-])(O)O[PH]([O-])(O)O)NC12

>  <submitter_email>  (482) 
nan

>  <disregarded>  (482) 


>  <LE>  (482) 
-0.504872

>  <submitter_institution>  (482) 
nan

>  <ref_mols>  (482) 
6MEA_0_A,4IQY_0_B

>  <N_constrained_atoms>  (482) 
19.0

>  <ref_url>  (482) 
nan

>  <method>  (482) 
nan

>  <comRMSD>  (482) 
0.741045

>  <N_unconstrained_atoms>  (482) 
2.0

>  <∆∆G>  (482) 
-10.602318

>  <runtime>  (482) 
31.080333

>  <generation_date>  (482) 
nan

$$$$
mArh-5cb5_O_0_O_β-mArh-5cb5_H_0_H_β
     RDKit          3D

  9  8  0  0  0  0  0  0  0  0999 V2000
   -1.6210   20.3710   -8.2380 O   0  0  0  0  0  0  0  0  0  0  0  0
   -0.1900   19.8140   -7.8160 P   0  0  0  0  0  0  0  0  0  0  0  0
   -0.3550   18.9940   -6.5020 O   0  0  0  0  0  0  0  0  0  0  0  0
    0.8470   20.8660   -7.8170 O   0  0  0  0  0  0  0  0  0  0  0  0
    0.0550   18.6800   -8.9110 O   0  0  0  0  0  0  0  0  0  0  0  0
   -1.6400   18.2290   -6.0210 P   0  0  0  0  0  0  0  0  0  0  0  0
   -1.0930   16.9650   -5.2230 O   0  0  0  0  0  0  0  0  0  0  0  0
   -2.5950   17.8850   -7.0890 O   0  0  0  0  0  0  0  0  0  0  0  0
   -2.2290   19.1990   -4.9130 O   0  0  0  0  0  0  0  0  0  0  0  0
  1  2  1  0
  2  3  1  0
  2  4  2  0
  2  5  1  0
  3  6  1  0
  6  7  1  0
  6  8  2  0
  6  9  1  0
M  END
>  <%Rank>  (483) 
36.793893

>  <N_hits>  (483) 
2

>  <submitter_name>  (483) 
nan

>  <original SMILES>  (483) 
nan

>  <∆G_unbound>  (483) 
0.687887

>  <∆G_bound>  (483) 
-8.026297

>  <regarded>  (483) 
mArh-5cb5_O_0_O_β,mArh-5cb5_H_0_H_β

>  <ref_pdb>  (483) 
nan

>  <smiles>  (483) 
O=P(O)(O)OP(=O)(O)O

>  <submitter_email>  (483) 
nan

>  <disregarded>  (483) 


>  <LE>  (483) 
-0.968243

>  <submitter_institution>  (483) 
nan

>  <ref_mols>  (483) 
mArh-5cb5_O_0_O,mArh-5cb5_H_0_H

>  <N_constrained_atoms>  (483) 
9.0

>  <ref_url>  (483) 
nan

>  <method>  (483) 
nan

>  <comRMSD>  (483) 
0.761049

>  <N_unconstrained_atoms>  (483) 
0.0

>  <∆∆G>  (483) 
-8.714184

>  <runtime>  (483) 
23.987162

>  <generation_date>  (483) 
nan

$$$$
5CB5_0_B_δ-mArh-x0631_0_A_α
     RDKit          3D

 25 27  0  0  0  0  0  0  0  0999 V2000
   -3.8090   15.5300    1.7080 N   0  0  0  0  0  0  0  0  0  0  0  0
   -2.5300   15.4810    1.0030 C   0  0  2  0  0  0  0  0  0  0  0  0
   -2.6140   15.4970   -0.5120 C   0  0  1  0  0  0  0  0  0  0  0  0
   -1.6950   14.4110    1.5070 N   0  0  0  0  0  0  0  0  0  0  0  0
   -1.4990   14.6220   -1.0230 C   0  0  1  0  0  0  0  0  0  0  0  0
   -3.7360   14.9530   -1.2720 N   0  0  0  0  0  0  0  0  0  0  0  0
   -0.3250   14.4080    0.9810 C   0  0  0  0  0  0  0  0  0  0  0  0
   -1.6260   14.8040   -2.4690 N   0  0  0  0  0  0  0  0  0  0  0  0
   -3.1080   14.9110   -2.6130 C   0  0  0  0  0  0  0  0  0  0  0  0
   -0.2660   14.9730   -0.3640 N   0  0  0  0  0  0  0  0  0  0  0  0
   -1.0740   13.7210   -3.3230 C   0  0  0  0  0  0  0  0  0  0  0  0
   -0.4730   14.2000   -4.6700 C   0  0  0  0  0  0  0  0  0  0  0  0
    0.3770   13.1700   -5.4530 C   0  0  0  0  0  0  0  0  0  0  0  0
   -0.3980   12.1940   -6.3590 C   0  0  0  0  0  0  0  0  0  0  0  0
    0.5040   11.2750   -7.2010 C   0  0  0  0  0  0  0  0  0  0  0  0
    0.0370   11.0480   -8.6520 C   0  0  0  0  0  0  0  0  0  0  0  0
    0.8670   10.0360   -9.4650 C   0  0  0  0  0  0  0  0  0  0  0  0
    1.6130   10.5740  -10.6120 N   0  0  0  0  0  0  0  0  0  0  0  0
    2.0060    9.5350  -11.5550 C   0  0  2  0  0  0  0  0  0  0  0  0
    3.0010    8.7240  -10.9500 O   0  0  0  0  0  0  0  0  0  0  0  0
    2.5120   10.0430  -12.9350 C   0  0  2  0  0  0  0  0  0  0  0  0
    3.8820    9.6590  -13.1420 O   0  0  0  0  0  0  0  0  0  0  0  0
    2.5090   11.5390  -13.2260 C   0  0  0  0  0  0  0  0  0  0  0  0
    4.2830   10.3480  -14.3320 C   0  0  0  0  0  0  0  0  0  0  0  0
    3.4890   11.6440  -14.3810 C   0  0  0  0  0  0  0  0  0  0  0  0
  2  1  1  1
  2  3  1  0
  2  4  1  0
  3  5  1  0
  3  6  1  1
  4  7  1  0
  5  8  1  0
  6  9  1  0
  8  9  1  0
  5 10  1  1
  7 10  1  0
  8 11  1  0
 11 12  1  0
 12 13  1  0
 13 14  1  0
 14 15  1  0
 15 16  1  0
 16 17  1  0
 17 18  1  0
 18 19  1  0
 19 20  1  1
 19 21  1  0
 21 22  1  0
 21 23  1  1
 22 24  1  0
 23 25  1  0
 24 25  1  0
M  END
>  <%Rank>  (484) 
36.870229

>  <N_hits>  (484) 
2

>  <submitter_name>  (484) 
nan

>  <original SMILES>  (484) 
nan

>  <∆G_unbound>  (484) 
0.697375

>  <∆G_bound>  (484) 
-5.883684

>  <regarded>  (484) 
5CB5_0_B_δ,mArh-x0631_0_A_α

>  <ref_pdb>  (484) 
nan

>  <smiles>  (484) 
NC1NCNC2C1NCN2CCCCCCCNC(O)C1CCCO1

>  <submitter_email>  (484) 
nan

>  <disregarded>  (484) 


>  <LE>  (484) 
-0.263242

>  <submitter_institution>  (484) 
nan

>  <ref_mols>  (484) 
5CB5_0_B,mArh-x0631_0_A

>  <N_constrained_atoms>  (484) 
18.0

>  <ref_url>  (484) 
nan

>  <method>  (484) 
nan

>  <comRMSD>  (484) 
0.459325

>  <N_unconstrained_atoms>  (484) 
7.0

>  <∆∆G>  (484) 
-6.581058

>  <runtime>  (484) 
40.039745

>  <generation_date>  (484) 
nan

$$$$
mArh-5cms_I_8_I_β-5CMS_0_O_γ
     RDKit          3D

 16 16  0  0  0  0  0  0  0  0999 V2000
   -0.6150   20.8090   -8.3030 O   0  0  0  0  0  0  0  0  0  0  0  0
   -0.1080   19.5060   -7.5690 P   0  0  0  0  0  0  0  0  0  0  0  0
   -1.2640   19.2300   -6.5400 O   0  0  0  0  0  0  0  0  0  0  0  0
    1.2550   19.5860   -7.0180 O   0  0  0  0  0  0  0  0  0  0  0  0
   -0.2310   18.3970   -8.6970 O   0  0  0  0  0  0  0  0  0  0  0  0
   -1.6400   17.7920   -6.0160 P   0  0  2  0  0  0  0  0  0  0  0  0
   -0.3290   16.8820   -5.7390 O   0  0  0  0  0  0  0  0  0  0  0  0
   -2.7510   17.1690   -6.7620 O   0  0  0  0  0  0  0  0  0  0  0  0
   -2.0270   18.1500   -4.5310 O   0  0  0  0  0  0  0  0  0  0  0  0
   -0.5270   15.7700   -4.8420 C   0  0  2  0  0  0  0  0  0  0  0  0
    0.1000   15.8730   -3.5510 O   0  0  0  0  0  0  0  0  0  0  0  0
   -0.1300   14.3410   -5.2600 C   0  0  1  0  0  0  0  0  0  0  0  0
    1.2780   14.0220   -5.2250 O   0  0  0  0  0  0  0  0  0  0  0  0
   -0.1450   14.5810   -2.9480 C   0  0  0  0  0  0  0  0  0  0  0  0
   -0.7500   13.6950   -4.0480 C   0  0  2  0  0  0  0  0  0  0  0  0
   -0.4310   12.3190   -3.9490 O   0  0  0  0  0  0  0  0  0  0  0  0
  1  2  1  0
  2  3  1  0
  2  4  2  0
  2  5  1  0
  3  6  1  0
  6  7  1  0
  6  8  2  0
  6  9  1  1
 10  7  1  6
 10 11  1  0
 10 12  1  0
 12 13  1  1
 11 14  1  0
 12 15  1  0
 14 15  1  0
 15 16  1  1
M  END
>  <%Rank>  (485) 
36.946565

>  <N_hits>  (485) 
2

>  <submitter_name>  (485) 
nan

>  <original SMILES>  (485) 
nan

>  <∆G_unbound>  (485) 
1.157846

>  <∆G_bound>  (485) 
-6.808718

>  <regarded>  (485) 
mArh-5cms_I_8_I_β,5CMS_0_O_γ

>  <ref_pdb>  (485) 
nan

>  <smiles>  (485) 
O=P(O)(O)OP(=O)(O)OC1OCC(O)C1O

>  <submitter_email>  (485) 
nan

>  <disregarded>  (485) 


>  <LE>  (485) 
-0.49791

>  <submitter_institution>  (485) 
nan

>  <ref_mols>  (485) 
mArh-5cms_I_8_I,5CMS_0_O

>  <N_constrained_atoms>  (485) 
16.0

>  <ref_url>  (485) 
nan

>  <method>  (485) 
nan

>  <comRMSD>  (485) 
0.727909

>  <N_unconstrained_atoms>  (485) 
0.0

>  <∆∆G>  (485) 
-7.966564

>  <runtime>  (485) 
26.576858

>  <generation_date>  (485) 
nan

$$$$
5CMS_0_H_δ-mArh-4iqy_B_0_B_β
     RDKit          3D

 21 22  0  0  0  0  0  0  0  0999 V2000
   -3.7480   15.5180    1.7990 N   0  0  0  0  0  0  0  0  0  0  0  0
   -2.4270   15.4600    1.1920 C   0  0  2  0  0  0  0  0  0  0  0  0
   -2.4390   15.6300   -0.3140 C   0  0  1  0  0  0  0  0  0  0  0  0
   -1.7730   14.2810    1.6530 N   0  0  0  0  0  0  0  0  0  0  0  0
   -1.0570   15.2980   -0.8900 C   0  0  2  0  0  0  0  0  0  0  0  0
   -3.3330   14.8640   -1.1820 N   0  0  0  0  0  0  0  0  0  0  0  0
   -0.4020   14.2730    1.1690 C   0  0  0  0  0  0  0  0  0  0  0  0
   -1.3770   14.8650   -2.2410 N   0  0  0  0  0  0  0  0  0  0  0  0
   -2.7290   15.3950   -2.3870 C   0  0  1  0  0  0  0  0  0  0  0  0
   -0.3940   14.1810   -0.2670 N   0  0  0  0  0  0  0  0  0  0  0  0
   -3.4180   15.0650   -3.7020 C   0  0  0  0  0  0  0  0  0  0  0  0
   -2.9120   15.9060   -4.9120 C   0  0  0  0  0  0  0  0  0  0  0  0
   -2.3620   17.2460   -4.6190 N   0  0  0  0  0  0  0  0  0  0  0  0
   -1.5600   17.8010   -5.9530 P   0  0  0  0  0  0  0  0  0  0  0  0
   -1.2710   19.3080   -6.3340 O   0  0  0  0  0  0  0  0  0  0  0  0
   -0.2170   17.0150   -6.1540 O   0  0  0  0  0  0  0  0  0  0  0  0
   -2.5890   17.3220   -7.0470 O   0  0  0  0  0  0  0  0  0  0  0  0
   -0.4650   19.7530   -7.6800 P   0  0  0  0  0  0  0  0  0  0  0  0
   -1.5780   20.5430   -8.5100 O   0  0  0  0  0  0  0  0  0  0  0  0
    0.8040   20.5010   -7.4930 O   0  0  0  0  0  0  0  0  0  0  0  0
   -0.2930   18.4280   -8.5700 O   0  0  0  0  0  0  0  0  0  0  0  0
  2  1  1  6
  2  3  1  0
  2  4  1  0
  3  5  1  0
  3  6  1  6
  4  7  1  0
  5  8  1  6
  6  9  1  0
  8  9  1  0
  5 10  1  0
  7 10  1  0
  9 11  1  6
 11 12  1  0
 12 13  1  0
 13 14  2  3
 14 15  1  0
 14 16  1  0
 14 17  1  0
 15 18  1  0
 18 19  1  0
 18 20  2  0
 18 21  1  0
M  END
>  <%Rank>  (486) 
37.022901

>  <N_hits>  (486) 
2

>  <submitter_name>  (486) 
nan

>  <original SMILES>  (486) 
nan

>  <∆G_unbound>  (486) 
3.09213

>  <∆G_bound>  (486) 
-7.730669

>  <regarded>  (486) 
5CMS_0_H_δ,mArh-4iqy_B_0_B_β

>  <ref_pdb>  (486) 
nan

>  <smiles>  (486) 
NC1NCNC2NC(CCN=P(O)(O)OP(=O)(O)O)NC12

>  <submitter_email>  (486) 
nan

>  <disregarded>  (486) 


>  <LE>  (486) 
-0.515371

>  <submitter_institution>  (486) 
nan

>  <ref_mols>  (486) 
5CMS_0_H,mArh-4iqy_B_0_B

>  <N_constrained_atoms>  (486) 
19.0

>  <ref_url>  (486) 
nan

>  <method>  (486) 
nan

>  <comRMSD>  (486) 
0.748713

>  <N_unconstrained_atoms>  (486) 
2.0

>  <∆∆G>  (486) 
-10.8228

>  <runtime>  (486) 
38.228004

>  <generation_date>  (486) 
nan

$$$$
mArh-5cms_O_14_O_γ-5FUD_1_B_α
     RDKit          3D

 22 23  0  0  0  0  0  0  0  0999 V2000
   -0.7740   12.1820   -4.1180 O   0  0  0  0  0  0  0  0  0  0  0  0
   -0.9000   13.5870   -4.2190 C   0  0  1  0  0  0  0  0  0  0  0  0
   -0.5560   14.3210   -2.9310 C   0  0  0  0  0  0  0  0  0  0  0  0
    0.0980   14.1990   -5.1770 C   0  0  2  0  0  0  0  0  0  0  0  0
    1.4010   13.6370   -5.0310 O   0  0  0  0  0  0  0  0  0  0  0  0
   -0.0460   15.6060   -3.3110 O   0  0  0  0  0  0  0  0  0  0  0  0
   -0.0620   15.6600   -4.7480 C   0  0  1  0  0  0  0  0  0  0  0  0
    1.0160   16.6120   -5.2190 C   0  0  0  0  0  0  0  0  0  0  0  0
    0.5590   17.9350   -5.8300 C   0  0  0  0  0  0  0  0  0  0  0  0
   -0.9490   18.1460   -5.8130 C   0  0  0  0  0  0  0  0  0  0  0  0
   -1.2120   19.4480   -6.3080 O   0  0  0  0  0  0  0  0  0  0  0  0
   -0.7790   19.9170   -7.7870 S   0  0  0  0  0  0  0  0  0  0  0  0
    0.4960   20.8790   -7.7240 O   0  0  0  0  0  0  0  0  0  0  0  0
   -0.4400   18.6640   -8.7430 O   0  0  0  0  0  0  0  0  0  0  0  0
   -2.1210   20.9440   -8.3980 C   0  0  0  0  0  0  0  0  0  0  0  0
   -2.1230   22.3610   -7.8950 C   0  0  0  0  0  0  0  0  0  0  0  0
   -3.3620   23.0930   -8.2300 N   0  0  0  0  0  0  0  0  0  0  0  0
   -4.2980   22.3260   -9.0910 C   0  0  0  0  0  0  0  0  0  0  0  0
   -3.9920   23.5470   -6.9860 C   0  0  0  0  0  0  0  0  0  0  0  0
   -5.6020   23.0840   -9.3980 C   0  0  0  0  0  0  0  0  0  0  0  0
   -5.4830   23.7720   -7.1260 C   0  0  0  0  0  0  0  0  0  0  0  0
   -5.8680   24.1220   -8.4540 O   0  0  0  0  0  0  0  0  0  0  0  0
  2  1  1  1
  2  3  1  0
  2  4  1  0
  4  5  1  1
  3  6  1  0
  4  7  1  0
  6  7  1  0
  7  8  1  6
  8  9  1  0
  9 10  1  0
 10 11  1  0
 12 11  1  0
 12 13  1  0
 12 14  1  0
 12 15  1  0
 15 16  1  0
 16 17  1  0
 17 18  1  0
 17 19  1  0
 18 20  1  0
 19 21  1  0
 20 22  1  0
 21 22  1  0
M  END
>  <%Rank>  (487) 
37.099237

>  <N_hits>  (487) 
2

>  <submitter_name>  (487) 
nan

>  <original SMILES>  (487) 
nan

>  <∆G_unbound>  (487) 
0.931168

>  <∆G_bound>  (487) 
-10.419675

>  <regarded>  (487) 
mArh-5cms_O_14_O_γ,5FUD_1_B_α

>  <ref_pdb>  (487) 
nan

>  <smiles>  (487) 
OC1COC(CCCOS(O)(O)CCN2CCOCC2)C1O

>  <submitter_email>  (487) 
nan

>  <disregarded>  (487) 


>  <LE>  (487) 
-0.515947

>  <submitter_institution>  (487) 
nan

>  <ref_mols>  (487) 
mArh-5cms_O_14_O,5FUD_1_B

>  <N_constrained_atoms>  (487) 
20.0

>  <ref_url>  (487) 
nan

>  <method>  (487) 
nan

>  <comRMSD>  (487) 
0.770869

>  <N_unconstrained_atoms>  (487) 
2.0

>  <∆∆G>  (487) 
-11.350843

>  <runtime>  (487) 
29.307302

>  <generation_date>  (487) 
nan

$$$$
mArh-5cms_O_14_O_β-2BFQ_1_A_α
     RDKit          3D

 17 17  0  0  0  0  0  0  0  0999 V2000
   -1.6290   21.5680   -8.2550 O   0  0  0  0  0  0  0  0  0  0  0  0
   -0.8250   20.2400   -7.7260 P   0  0  2  0  0  0  0  0  0  0  0  0
   -1.5190   19.7120   -6.3920 O   0  0  0  0  0  0  0  0  0  0  0  0
   -3.0480   21.9120   -8.2310 C   0  0  1  0  0  0  0  0  0  0  0  0
    0.6450   20.4530   -7.5330 O   0  0  0  0  0  0  0  0  0  0  0  0
   -1.0170   19.0050   -8.7260 O   0  0  0  0  0  0  0  0  0  0  0  0
   -3.8610   21.1630   -7.3080 O   0  0  0  0  0  0  0  0  0  0  0  0
   -3.3980   23.4140   -7.8890 C   0  0  1  0  0  0  0  0  0  0  0  0
   -1.7580   18.1550   -6.1530 P   0  0  0  0  0  0  0  0  0  0  0  0
   -4.1750   24.0500   -8.9300 O   0  0  0  0  0  0  0  0  0  0  0  0
   -4.9650   22.0420   -7.1070 C   0  0  2  0  0  0  0  0  0  0  0  0
   -4.2480   23.2740   -6.6240 C   0  0  2  0  0  0  0  0  0  0  0  0
   -0.3340   17.4760   -6.0000 O   0  0  0  0  0  0  0  0  0  0  0  0
   -2.6850   17.4520   -7.0440 O   0  0  0  0  0  0  0  0  0  0  0  0
   -2.2270   18.0530   -4.6520 O   0  0  0  0  0  0  0  0  0  0  0  0
   -5.9120   21.6140   -6.1440 O   0  0  0  0  0  0  0  0  0  0  0  0
   -5.1950   24.3280   -6.3680 O   0  0  0  0  0  0  0  0  0  0  0  0
  1  2  1  0
  2  3  1  0
  4  1  1  1
  2  5  2  0
  2  6  1  6
  4  7  1  0
  4  8  1  0
  3  9  1  0
  8 10  1  6
  7 11  1  0
  8 12  1  0
 11 12  1  0
  9 13  1  0
  9 14  2  0
  9 15  1  0
 11 16  1  1
 12 17  1  6
M  END
>  <%Rank>  (488) 
37.175573

>  <N_hits>  (488) 
2

>  <submitter_name>  (488) 
nan

>  <original SMILES>  (488) 
nan

>  <∆G_unbound>  (488) 
1.974322

>  <∆G_bound>  (488) 
-10.495509

>  <regarded>  (488) 
mArh-5cms_O_14_O_β,2BFQ_1_A_α

>  <ref_pdb>  (488) 
nan

>  <smiles>  (488) 
O=P(O)(O)OP(=O)(O)OC1OC(O)C(O)C1O

>  <submitter_email>  (488) 
nan

>  <disregarded>  (488) 


>  <LE>  (488) 
-0.733519

>  <submitter_institution>  (488) 
nan

>  <ref_mols>  (488) 
mArh-5cms_O_14_O,2BFQ_1_A

>  <N_constrained_atoms>  (488) 
17.0

>  <ref_url>  (488) 
nan

>  <method>  (488) 
nan

>  <comRMSD>  (488) 
0.870571

>  <N_unconstrained_atoms>  (488) 
0.0

>  <∆∆G>  (488) 
-12.469831

>  <runtime>  (488) 
39.349101

>  <generation_date>  (488) 
nan

$$$$
5CB5_0_J_δ-5CMS_0_K_β
     RDKit          3D

 21 22  0  0  0  0  0  0  0  0999 V2000
   -3.9900   15.3530    1.8290 N   0  0  0  0  0  0  0  0  0  0  0  0
   -2.9060   15.4910    0.9270 C   0  0  2  0  0  0  0  0  0  0  0  0
   -2.9100   14.6780   -0.2890 C   0  0  2  0  0  0  0  0  0  0  0  0
   -1.6610   15.0840    1.5660 N   0  0  0  0  0  0  0  0  0  0  0  0
   -1.7670   15.2940   -1.1360 C   0  0  2  0  0  0  0  0  0  0  0  0
   -3.9890   14.7890   -1.1850 N   0  0  0  0  0  0  0  0  0  0  0  0
   -0.5030   15.3530    0.7940 C   0  0  0  0  0  0  0  0  0  0  0  0
   -2.1510   14.9810   -2.4400 N   0  0  0  0  0  0  0  0  0  0  0  0
   -3.3100   14.1710   -2.3430 C   0  0  0  0  0  0  0  0  0  0  0  0
   -0.5700   14.7700   -0.5590 N   0  0  0  0  0  0  0  0  0  0  0  0
   -2.2960   15.9970   -3.3930 C   0  0  0  0  0  0  0  0  0  0  0  0
   -1.1230   16.0300   -4.3840 C   0  0  0  0  0  0  0  0  0  0  0  0
   -1.5710   16.5570   -5.5600 O   0  0  0  0  0  0  0  0  0  0  0  0
   -1.4290   18.2230   -5.7310 P   0  0  0  0  0  0  0  0  0  0  0  0
   -0.1250   18.8320   -6.3650 O   0  0  0  0  0  0  0  0  0  0  0  0
   -2.2280   18.1020   -7.0380 O   0  0  0  0  0  0  0  0  0  0  0  0
   -2.5090   19.2210   -5.0850 O   0  0  0  0  0  0  0  0  0  0  0  0
   -0.0040   19.5270   -7.7590 P   0  0  0  0  0  0  0  0  0  0  0  0
   -1.4300   19.9700   -7.9910 O   0  0  0  0  0  0  0  0  0  0  0  0
    0.4740   21.1310   -7.9690 O   0  0  0  0  0  0  0  0  0  0  0  0
    0.1310   18.5230   -9.0520 O   0  0  0  0  0  0  0  0  0  0  0  0
  2  1  1  1
  2  3  1  0
  2  4  1  0
  3  5  1  0
  3  6  1  6
  4  7  1  0
  5  8  1  0
  6  9  1  0
  8  9  1  0
  5 10  1  1
  7 10  1  0
  8 11  1  0
 11 12  1  0
 12 13  1  0
 13 14  1  0
 14 15  1  0
 14 16  1  0
 14 17  1  0
 15 18  1  0
 18 19  1  0
 18 20  1  0
 18 21  1  0
M  CHG  2  16  -1  20  -1
M  END
>  <%Rank>  (489) 
37.251908

>  <N_hits>  (489) 
2

>  <submitter_name>  (489) 
nan

>  <original SMILES>  (489) 
nan

>  <∆G_unbound>  (489) 
2.389304

>  <∆G_bound>  (489) 
-6.004423

>  <regarded>  (489) 
5CB5_0_J_δ,5CMS_0_K_β

>  <ref_pdb>  (489) 
nan

>  <smiles>  (489) 
NC1NCNC2C1NCN2CCO[PH]([O-])(O)O[PH]([O-])(O)O

>  <submitter_email>  (489) 
nan

>  <disregarded>  (489) 


>  <LE>  (489) 
-0.399701

>  <submitter_institution>  (489) 
nan

>  <ref_mols>  (489) 
5CB5_0_J,5CMS_0_K

>  <N_constrained_atoms>  (489) 
19.0

>  <ref_url>  (489) 
nan

>  <method>  (489) 
nan

>  <comRMSD>  (489) 
0.693117

>  <N_unconstrained_atoms>  (489) 
2.0

>  <∆∆G>  (489) 
-8.393728

>  <runtime>  (489) 
32.490721

>  <generation_date>  (489) 
nan

$$$$
mArh-x0895_0_A_α-mArh-5cb5_H_0_H_β
     RDKit          3D

 19 19  0  0  0  0  0  0  0  0999 V2000
   -1.3760   14.8910    1.7920 O   0  0  0  0  0  0  0  0  0  0  0  0
   -2.4140   14.9350    1.1600 C   0  0  0  0  0  0  0  0  0  0  0  0
   -3.7730   14.4480    1.6000 C   0  0  0  0  0  0  0  0  0  0  0  0
   -2.6130   15.4410   -0.0970 N   0  0  0  0  0  0  0  0  0  0  0  0
   -4.3350   14.1290    0.2940 N   0  0  0  0  0  0  0  0  0  0  0  0
   -3.6790   14.8360   -0.6640 C   0  0  0  0  0  0  0  0  0  0  0  0
   -3.8970   15.0040   -1.9080 N   0  0  0  0  0  0  0  0  0  0  0  0
   -3.0590   15.9190   -2.6910 C   0  0  0  0  0  0  0  0  0  0  0  0
   -1.8310   15.4350   -3.4220 C   0  0  0  0  0  0  0  0  0  0  0  0
   -1.0230   16.6570   -3.9520 C   0  0  0  0  0  0  0  0  0  0  0  0
   -1.8250   17.7400   -4.5120 O   0  0  0  0  0  0  0  0  0  0  0  0
   -1.6140   18.0330   -6.0850 P   0  0  1  0  0  0  0  0  0  0  0  0
   -1.1230   19.5180   -6.3450 O   0  0  0  0  0  0  0  0  0  0  0  0
   -0.2320   17.2770   -6.3020 O   0  0  0  0  0  0  0  0  0  0  0  0
   -2.7010   17.5640   -6.9650 O   0  0  0  0  0  0  0  0  0  0  0  0
   -0.3580   19.9170   -7.6930 P   0  0  0  0  0  0  0  0  0  0  0  0
   -1.4650   20.6820   -8.5540 O   0  0  0  0  0  0  0  0  0  0  0  0
    0.9170   20.6600   -7.5880 O   0  0  0  0  0  0  0  0  0  0  0  0
   -0.1960   18.5820   -8.5730 O   0  0  0  0  0  0  0  0  0  0  0  0
  1  2  2  0
  2  3  1  0
  2  4  1  0
  3  5  1  0
  4  6  1  0
  5  6  1  0
  6  7  2  3
  7  8  1  0
  8  9  1  0
  9 10  1  0
 10 11  1  0
 11 12  1  0
 12 13  1  0
 12 14  1  6
 12 15  2  0
 13 16  1  0
 16 17  1  0
 16 18  2  0
 16 19  1  0
M  END
>  <%Rank>  (490) 
37.328244

>  <N_hits>  (490) 
2

>  <submitter_name>  (490) 
nan

>  <original SMILES>  (490) 
nan

>  <∆G_unbound>  (490) 
0.402716

>  <∆G_bound>  (490) 
-10.885994

>  <regarded>  (490) 
mArh-x0895_0_A_α,mArh-5cb5_H_0_H_β

>  <ref_pdb>  (490) 
nan

>  <smiles>  (490) 
O=C1CNC(=NCCCOP(=O)(O)OP(=O)(O)O)N1

>  <submitter_email>  (490) 
nan

>  <disregarded>  (490) 


>  <LE>  (490) 
-0.594143

>  <submitter_institution>  (490) 
nan

>  <ref_mols>  (490) 
mArh-x0895_0_A,mArh-5cb5_H_0_H

>  <N_constrained_atoms>  (490) 
16.0

>  <ref_url>  (490) 
nan

>  <method>  (490) 
nan

>  <comRMSD>  (490) 
0.685372

>  <N_unconstrained_atoms>  (490) 
3.0

>  <∆∆G>  (490) 
-11.28871

>  <runtime>  (490) 
48.315217

>  <generation_date>  (490) 
nan

$$$$
5CMS_0_F_β-mArh-5fud_A_0_A_α
     RDKit          3D

 16 16  0  0  0  0  0  0  0  0999 V2000
   -1.7960   20.8090   -8.7130 O   0  0  0  0  0  0  0  0  0  0  0  0
   -1.0680   19.7900   -7.8020 P   0  0  0  0  0  0  0  0  0  0  0  0
   -0.5940   19.0280   -6.5470 O   0  0  0  0  0  0  0  0  0  0  0  0
   -2.2490   21.9320   -7.9300 C   0  0  0  0  0  0  0  0  0  0  0  0
   -0.1420   21.1120   -7.3360 O   0  0  0  0  0  0  0  0  0  0  0  0
   -0.3140   18.7940   -8.8230 O   0  0  0  0  0  0  0  0  0  0  0  0
   -3.6810   22.1120   -7.9820 N   0  0  0  0  0  0  0  0  0  0  0  0
   -1.4970   17.9890   -5.8560 P   0  0  0  0  0  0  0  0  0  0  0  0
   -4.1210   22.5080   -9.3020 C   0  0  0  0  0  0  0  0  0  0  0  0
   -4.0680   23.1780   -7.1120 C   0  0  0  0  0  0  0  0  0  0  0  0
   -0.1900   16.9390   -5.8040 O   0  0  0  0  0  0  0  0  0  0  0  0
   -2.5700   17.9540   -7.0890 O   0  0  0  0  0  0  0  0  0  0  0  0
   -1.8090   18.9240   -4.6000 O   0  0  0  0  0  0  0  0  0  0  0  0
   -5.6260   22.7190   -9.3610 C   0  0  0  0  0  0  0  0  0  0  0  0
   -5.5680   23.3720   -7.1510 C   0  0  0  0  0  0  0  0  0  0  0  0
   -6.0310   23.6480   -8.4350 O   0  0  0  0  0  0  0  0  0  0  0  0
  1  2  1  0
  2  3  1  0
  1  4  1  0
  2  5  1  0
  2  6  1  0
  4  7  1  0
  3  8  1  0
  7  9  1  0
  7 10  1  0
  8 11  1  0
  8 12  1  0
  8 13  1  0
  9 14  1  0
 10 15  1  0
 14 16  1  0
 15 16  1  0
M  CHG  2   5  -1  12  -1
M  END
>  <%Rank>  (491) 
37.40458

>  <N_hits>  (491) 
2

>  <submitter_name>  (491) 
nan

>  <original SMILES>  (491) 
nan

>  <∆G_unbound>  (491) 
1.136978

>  <∆G_bound>  (491) 
-8.554312

>  <regarded>  (491) 
5CMS_0_F_β,mArh-5fud_A_0_A_α

>  <ref_pdb>  (491) 
nan

>  <smiles>  (491) 
[O-][PH](O)(O)O[PH]([O-])(O)OCN1CCOCC1

>  <submitter_email>  (491) 
nan

>  <disregarded>  (491) 


>  <LE>  (491) 
-0.605706

>  <submitter_institution>  (491) 
nan

>  <ref_mols>  (491) 
5CMS_0_F,mArh-5fud_A_0_A

>  <N_constrained_atoms>  (491) 
16.0

>  <ref_url>  (491) 
nan

>  <method>  (491) 
nan

>  <comRMSD>  (491) 
0.785392

>  <N_unconstrained_atoms>  (491) 
0.0

>  <∆∆G>  (491) 
-9.69129

>  <runtime>  (491) 
30.921117

>  <generation_date>  (491) 
nan

$$$$
5CMS_0_P_δ-5CMS_0_J_β
     RDKit          3D

 21 22  0  0  0  0  0  0  0  0999 V2000
   -3.7110   15.3900    1.8260 N   0  0  0  0  0  0  0  0  0  0  0  0
   -2.5320   15.3110    1.0470 C   0  0  2  0  0  0  0  0  0  0  0  0
   -2.6500   14.6690   -0.2580 C   0  0  2  0  0  0  0  0  0  0  0  0
   -1.5170   14.5130    1.7190 N   0  0  0  0  0  0  0  0  0  0  0  0
   -1.3220   15.0400   -0.9430 C   0  0  2  0  0  0  0  0  0  0  0  0
   -3.5960   15.1710   -1.1720 N   0  0  0  0  0  0  0  0  0  0  0  0
   -0.2720   14.4230    1.0460 C   0  0  0  0  0  0  0  0  0  0  0  0
   -1.6530   15.0630   -2.3000 N   0  0  0  0  0  0  0  0  0  0  0  0
   -3.0010   14.6170   -2.4060 C   0  0  0  0  0  0  0  0  0  0  0  0
   -0.3850   14.1060   -0.3990 N   0  0  0  0  0  0  0  0  0  0  0  0
   -1.3870   16.2500   -3.0030 C   0  0  0  0  0  0  0  0  0  0  0  0
   -1.1060   16.0640   -4.5070 C   0  0  0  0  0  0  0  0  0  0  0  0
   -0.6820   17.2700   -5.0170 O   0  0  0  0  0  0  0  0  0  0  0  0
   -1.7910   18.1440   -5.9450 P   0  0  0  0  0  0  0  0  0  0  0  0
   -1.4630   19.6390   -6.3680 O   0  0  0  0  0  0  0  0  0  0  0  0
   -0.9730   17.7540   -7.1450 O   0  0  0  0  0  0  0  0  0  0  0  0
   -3.0650   17.3430   -6.5330 O   0  0  0  0  0  0  0  0  0  0  0  0
   -0.6750   19.7850   -7.7230 P   0  0  0  0  0  0  0  0  0  0  0  0
   -0.0030   21.1190   -7.5440 O   0  0  0  0  0  0  0  0  0  0  0  0
    0.7940   18.9980   -7.8790 O   0  0  0  0  0  0  0  0  0  0  0  0
   -1.3690   20.1870   -9.1600 O   0  0  0  0  0  0  0  0  0  0  0  0
  2  1  1  1
  2  3  1  0
  2  4  1  0
  3  5  1  0
  3  6  1  6
  4  7  1  0
  5  8  1  0
  6  9  1  0
  8  9  1  0
  5 10  1  6
  7 10  1  0
  8 11  1  0
 11 12  1  0
 12 13  1  0
 13 14  1  0
 14 15  1  0
 14 16  1  0
 14 17  1  0
 15 18  1  0
 18 19  1  0
 18 20  1  0
 18 21  1  0
M  CHG  2  16  -1  20  -1
M  END
>  <%Rank>  (492) 
37.480916

>  <N_hits>  (492) 
2

>  <submitter_name>  (492) 
nan

>  <original SMILES>  (492) 
nan

>  <∆G_unbound>  (492) 
2.389304

>  <∆G_bound>  (492) 
-5.108152

>  <regarded>  (492) 
5CMS_0_P_δ,5CMS_0_J_β

>  <ref_pdb>  (492) 
nan

>  <smiles>  (492) 
NC1NCNC2C1NCN2CCO[PH]([O-])(O)O[PH]([O-])(O)O

>  <submitter_email>  (492) 
nan

>  <disregarded>  (492) 


>  <LE>  (492) 
-0.357022

>  <submitter_institution>  (492) 
nan

>  <ref_mols>  (492) 
5CMS_0_P,5CMS_0_J

>  <N_constrained_atoms>  (492) 
19.0

>  <ref_url>  (492) 
nan

>  <method>  (492) 
nan

>  <comRMSD>  (492) 
0.675471

>  <N_unconstrained_atoms>  (492) 
2.0

>  <∆∆G>  (492) 
-7.497456

>  <runtime>  (492) 
34.007472

>  <generation_date>  (492) 
nan

$$$$
5CMS_0_I_γ-mArh-x0371_0_A_α
     RDKit          3D

 23 24  0  0  0  0  0  0  0  0999 V2000
   -1.3210   12.3690   -4.2380 O   0  0  0  0  0  0  0  0  0  0  0  0
   -1.2400   13.7930   -4.1400 C   0  0  1  0  0  0  0  0  0  0  0  0
   -0.5750   14.2570   -2.8460 C   0  0  2  0  0  0  0  0  0  0  0  0
   -0.2400   14.3470   -5.1180 C   0  0  2  0  0  0  0  0  0  0  0  0
    0.9850   13.6220   -5.1110 O   0  0  0  0  0  0  0  0  0  0  0  0
   -1.4780   14.2910   -1.6010 C   0  0  0  0  0  0  0  0  0  0  0  0
   -0.0300   15.5750   -3.1550 O   0  0  0  0  0  0  0  0  0  0  0  0
   -0.2120   15.7770   -4.5770 C   0  0  1  0  0  0  0  0  0  0  0  0
    0.7990   16.7530   -5.1550 C   0  0  0  0  0  0  0  0  0  0  0  0
   -2.9960   14.3000   -1.8660 C   0  0  0  0  0  0  0  0  0  0  0  0
   -3.7420   15.3870   -1.0880 C   0  0  0  0  0  0  0  0  0  0  0  0
   -5.1970   15.1070   -0.7030 C   0  0  0  0  0  0  0  0  0  0  0  0
   -5.4230   14.6210    0.7320 C   0  0  0  0  0  0  0  0  0  0  0  0
   -6.8830   14.2630    1.0290 C   0  0  0  0  0  0  0  0  0  0  0  0
   -7.1730   14.2240    2.5280 C   0  0  0  0  0  0  0  0  0  0  0  0
   -8.5590   14.4390    2.8510 N   0  0  0  0  0  0  0  0  0  0  0  0
   -8.9790   15.5550    3.5390 C   0  0  0  0  0  0  0  0  0  0  0  0
   -9.5260   16.4960    2.9750 O   0  0  0  0  0  0  0  0  0  0  0  0
   -8.7290   15.5130    4.9640 C   0  0  0  0  0  0  0  0  0  0  0  0
   -8.1000   14.4240    5.5080 O   0  0  0  0  0  0  0  0  0  0  0  0
   -9.0190   16.4190    5.9680 C   0  0  0  0  0  0  0  0  0  0  0  0
   -7.9920   14.6410    6.8430 C   0  0  0  0  0  0  0  0  0  0  0  0
   -8.5440   15.8530    7.1750 C   0  0  0  0  0  0  0  0  0  0  0  0
  2  1  1  1
  2  3  1  0
  2  4  1  0
  4  5  1  1
  3  6  1  1
  3  7  1  0
  4  8  1  0
  7  8  1  0
  8  9  1  6
  6 10  1  0
 10 11  1  0
 11 12  1  0
 12 13  1  0
 13 14  1  0
 14 15  1  0
 15 16  1  0
 16 17  1  0
 17 18  2  0
 17 19  1  0
 19 20  1  0
 19 21  2  0
 20 22  1  0
 21 23  1  0
 22 23  2  0
M  END
>  <%Rank>  (493) 
37.557252

>  <N_hits>  (493) 
2

>  <submitter_name>  (493) 
nan

>  <original SMILES>  (493) 
nan

>  <∆G_unbound>  (493) 
0.037706

>  <∆G_bound>  (493) 
-7.042045

>  <regarded>  (493) 
5CMS_0_I_γ,mArh-x0371_0_A_α

>  <ref_pdb>  (493) 
nan

>  <smiles>  (493) 
CC1OC(CCCCCCCNC(=O)c2ccco2)C(O)C1O

>  <submitter_email>  (493) 
nan

>  <disregarded>  (493) 


>  <LE>  (493) 
-0.307815

>  <submitter_institution>  (493) 
nan

>  <ref_mols>  (493) 
5CMS_0_I,mArh-x0371_0_A

>  <N_constrained_atoms>  (493) 
16.0

>  <ref_url>  (493) 
nan

>  <method>  (493) 
nan

>  <comRMSD>  (493) 
0.42076

>  <N_unconstrained_atoms>  (493) 
7.0

>  <∆∆G>  (493) 
-7.079751

>  <runtime>  (493) 
38.655272

>  <generation_date>  (493) 
nan

$$$$
mArh-EU0844_0_A_α-mArh-5cb5_L_0_L_α
     RDKit          3D

 30 32  0  0  0  0  0  0  0  0999 V2000
   -9.6870   14.6970    0.6600 C   0  0  0  0  0  0  0  0  0  0  0  0
   -8.2010   14.7960    0.8420 C   0  0  0  0  0  0  0  0  0  0  0  0
   -7.4670   14.8240   -0.3130 N   0  0  0  0  0  0  0  0  0  0  0  0
   -7.6100   14.8730    2.0990 C   0  0  0  0  0  0  0  0  0  0  0  0
   -8.4100   14.9000    3.3600 C   0  0  0  0  0  0  0  0  0  0  0  0
   -6.1160   14.9350   -0.2650 C   0  0  0  0  0  0  0  0  0  0  0  0
   -6.2040   14.9520    2.1490 C   0  0  0  0  0  0  0  0  0  0  0  0
   -9.4960   15.4770    3.3470 O   0  0  0  0  0  0  0  0  0  0  0  0
   -7.9000   14.3150    4.4940 N   0  0  0  0  0  0  0  0  0  0  0  0
   -5.4320   14.9880    0.9590 C   0  0  0  0  0  0  0  0  0  0  0  0
   -5.3700   15.0160   -1.4560 C   0  0  0  0  0  0  0  0  0  0  0  0
   -8.3110   14.7940    5.7930 C   0  0  0  0  0  0  0  0  0  0  0  0
   -3.9580   15.1490   -1.4970 C   0  0  0  0  0  0  0  0  0  0  0  0
   -4.0250   15.0920    0.9600 C   0  0  0  0  0  0  0  0  0  0  0  0
   -3.4290   15.2510   -2.8210 O   0  0  0  0  0  0  0  0  0  0  0  0
   -3.2970   15.1700   -0.2520 C   0  0  0  0  0  0  0  0  0  0  0  0
   -2.0210   15.1260   -3.2290 C   0  0  0  0  0  0  0  0  0  0  0  0
   -1.4560   16.0470   -4.4130 C   0  0  0  0  0  0  0  0  0  0  0  0
   -2.4300   17.0090   -5.1590 C   0  0  0  0  0  0  0  0  0  0  0  0
   -1.9690   18.5310   -5.4010 C   0  0  0  0  0  0  0  0  0  0  0  0
   -2.7970   19.4210   -6.4460 C   0  0  0  0  0  0  0  0  0  0  0  0
   -3.5650   20.6200   -5.9810 O   0  0  0  0  0  0  0  0  0  0  0  0
   -4.4570   21.2820   -6.9480 C   0  0  2  0  0  0  0  0  0  0  0  0
   -4.1930   20.7740   -8.2420 O   0  0  0  0  0  0  0  0  0  0  0  0
   -4.3710   22.8590   -7.1510 C   0  0  2  0  0  0  0  0  0  0  0  0
   -5.5170   23.6500   -6.7580 O   0  0  0  0  0  0  0  0  0  0  0  0
   -3.4150   21.7710   -8.8860 C   0  0  1  0  0  0  0  0  0  0  0  0
   -4.3690   22.9030   -8.6760 C   0  0  2  0  0  0  0  0  0  0  0  0
   -2.0630   21.9080   -8.1950 C   0  0  0  0  0  0  0  0  0  0  0  0
   -4.0120   24.1210   -9.2890 O   0  0  0  0  0  0  0  0  0  0  0  0
  1  2  1  0
  2  3  2  0
  2  4  1  0
  4  5  1  0
  3  6  1  0
  4  7  2  0
  5  8  2  0
  5  9  1  0
  6 10  2  0
  7 10  1  0
  6 11  1  0
  9 12  1  0
 11 13  2  0
 10 14  1  0
 13 15  1  0
 13 16  1  0
 14 16  2  0
 15 17  1  0
 17 18  1  0
 18 19  1  0
 19 20  1  0
 20 21  1  0
 21 22  1  0
 23 22  1  1
 23 24  1  0
 23 25  1  0
 25 26  1  1
 24 27  1  0
 25 28  1  0
 27 28  1  0
 27 29  1  1
 28 30  1  1
M  END
>  <%Rank>  (494) 
37.633588

>  <N_hits>  (494) 
2

>  <submitter_name>  (494) 
nan

>  <original SMILES>  (494) 
nan

>  <∆G_unbound>  (494) 
0.082023

>  <∆G_bound>  (494) 
-9.80894

>  <regarded>  (494) 
mArh-EU0844_0_A_α,mArh-5cb5_L_0_L_α

>  <ref_pdb>  (494) 
nan

>  <smiles>  (494) 
CNC(=O)c1cc2ccc(OCCCCCOC3OC(C)C(O)C3O)cc2nc1C

>  <submitter_email>  (494) 
nan

>  <disregarded>  (494) 


>  <LE>  (494) 
-0.329699

>  <submitter_institution>  (494) 
nan

>  <ref_mols>  (494) 
mArh-EU0844_0_A,mArh-5cb5_L_0_L

>  <N_constrained_atoms>  (494) 
25.0

>  <ref_url>  (494) 
nan

>  <method>  (494) 
nan

>  <comRMSD>  (494) 
0.719169

>  <N_unconstrained_atoms>  (494) 
5.0

>  <∆∆G>  (494) 
-9.890963

>  <runtime>  (494) 
55.257132

>  <generation_date>  (494) 
nan

$$$$
mArh-EU0481_0_A_α-mArh-EU0241_0_A_α
     RDKit          3D

 18 20  0  0  0  0  0  0  0  0999 V2000
   -8.0800   13.1730    3.8500 N   0  0  0  0  0  0  0  0  0  0  0  0
   -8.4640   14.3200    3.0440 C   0  0  0  0  0  0  0  0  0  0  0  0
   -7.5920   14.4910    1.8380 C   0  0  0  0  0  0  0  0  0  0  0  0
   -8.1250   14.9560    0.6430 C   0  0  0  0  0  0  0  0  0  0  0  0
   -6.2260   14.2000    1.8600 C   0  0  0  0  0  0  0  0  0  0  0  0
   -7.4040   15.1600   -0.4770 N   0  0  0  0  0  0  0  0  0  0  0  0
   -5.4500   14.3940    0.7230 C   0  0  0  0  0  0  0  0  0  0  0  0
   -6.0820   14.8890   -0.4130 C   0  0  0  0  0  0  0  0  0  0  0  0
   -3.9770   14.0770    0.7210 C   0  0  0  0  0  0  0  0  0  0  0  0
   -3.1330   14.6880   -0.4430 C   0  0  2  0  0  0  0  0  0  0  0  0
   -5.3320   15.1630   -1.6260 C   0  0  0  0  0  0  0  0  0  0  0  0
   -3.9920   15.0890   -1.6440 C   0  0  0  0  0  0  0  0  0  0  0  0
   -2.0730   13.6880   -0.9740 C   0  0  0  0  0  0  0  0  0  0  0  0
   -2.3730   15.8190    0.2430 C   0  0  0  0  0  0  0  0  0  0  0  0
   -0.6160   13.8730   -0.4750 C   0  0  1  0  0  0  0  0  0  0  0  0
   -1.5510   15.3500    1.3520 N   0  0  0  0  0  0  0  0  0  0  0  0
    0.1640   14.5550   -1.5150 N   0  0  0  0  0  0  0  0  0  0  0  0
   -0.4370   14.5200    0.9250 C   0  0  0  0  0  0  0  0  0  0  0  0
  1  2  1  0
  2  3  1  0
  3  4  2  0
  3  5  1  0
  4  6  1  0
  5  7  2  0
  6  8  2  0
  7  8  1  0
  7  9  1  0
 10  9  1  1
  8 11  1  0
 10 12  1  0
 11 12  2  0
 10 13  1  0
 10 14  1  0
 13 15  1  0
 14 16  1  0
 15 17  1  6
 15 18  1  0
 16 18  1  0
M  END
>  <%Rank>  (495) 
37.709924

>  <N_hits>  (495) 
2

>  <submitter_name>  (495) 
nan

>  <original SMILES>  (495) 
nan

>  <∆G_unbound>  (495) 
0.094601

>  <∆G_bound>  (495) 
-4.971066

>  <regarded>  (495) 
mArh-EU0481_0_A_α,mArh-EU0241_0_A_α

>  <ref_pdb>  (495) 
nan

>  <smiles>  (495) 
NCc1cnc2c(c1)CC1(C=C2)CNCC(N)C1

>  <submitter_email>  (495) 
nan

>  <disregarded>  (495) 


>  <LE>  (495) 
-0.281426

>  <submitter_institution>  (495) 
nan

>  <ref_mols>  (495) 
mArh-EU0481_0_A,mArh-EU0241_0_A

>  <N_constrained_atoms>  (495) 
18.0

>  <ref_url>  (495) 
nan

>  <method>  (495) 
nan

>  <comRMSD>  (495) 
0.673999

>  <N_unconstrained_atoms>  (495) 
0.0

>  <∆∆G>  (495) 
-5.065666

>  <runtime>  (495) 
31.115285

>  <generation_date>  (495) 
nan

$$$$
5CMS_0_P_δ-5CB5_0_B_β
     RDKit          3D

 21 22  0  0  0  0  0  0  0  0999 V2000
   -3.7140   15.6380    1.4400 N   0  0  0  0  0  0  0  0  0  0  0  0
   -2.6840   14.6540    1.2250 C   0  0  1  0  0  0  0  0  0  0  0  0
   -2.6350   14.1460   -0.1940 C   0  0  2  0  0  0  0  0  0  0  0  0
   -1.4190   15.3020    1.4290 N   0  0  0  0  0  0  0  0  0  0  0  0
   -1.2380   14.4750   -0.7360 C   0  0  2  0  0  0  0  0  0  0  0  0
   -3.4760   14.7360   -1.1630 N   0  0  0  0  0  0  0  0  0  0  0  0
   -0.3000   14.4230    1.3340 C   0  0  0  0  0  0  0  0  0  0  0  0
   -1.4550   14.0290   -2.0410 N   0  0  0  0  0  0  0  0  0  0  0  0
   -2.6460   14.7440   -2.3750 C   0  0  2  0  0  0  0  0  0  0  0  0
   -0.2870   13.7610    0.0390 N   0  0  0  0  0  0  0  0  0  0  0  0
   -2.1130   16.0970   -2.6380 C   0  0  0  0  0  0  0  0  0  0  0  0
   -2.2070   16.5160   -4.0920 C   0  0  0  0  0  0  0  0  0  0  0  0
   -1.9600   17.8560   -4.2890 O   0  0  0  0  0  0  0  0  0  0  0  0
   -1.9460   18.3610   -5.8190 P   0  0  0  0  0  0  0  0  0  0  0  0
   -1.1210   19.6550   -6.3960 O   0  0  0  0  0  0  0  0  0  0  0  0
   -0.8260   17.4150   -6.2180 O   0  0  0  0  0  0  0  0  0  0  0  0
   -2.9340   17.5710   -6.8830 O   0  0  0  0  0  0  0  0  0  0  0  0
   -0.4410   19.3250   -7.6800 P   0  0  0  0  0  0  0  0  0  0  0  0
   -1.4730   20.3180   -8.5230 O   0  0  0  0  0  0  0  0  0  0  0  0
    0.9640   20.0140   -7.2290 O   0  0  0  0  0  0  0  0  0  0  0  0
    0.2330   18.8020   -8.9130 O   0  0  0  0  0  0  0  0  0  0  0  0
  2  1  1  6
  2  3  1  0
  2  4  1  0
  3  5  1  0
  3  6  1  6
  4  7  1  0
  5  8  1  6
  6  9  1  0
  8  9  1  0
  5 10  1  0
  7 10  1  0
  9 11  1  1
 11 12  1  0
 12 13  1  0
 13 14  1  0
 14 15  1  0
 14 16  1  0
 14 17  1  0
 15 18  1  0
 18 19  1  0
 18 20  1  0
 18 21  1  0
M  CHG  2  17  -1  20  -1
M  END
>  <%Rank>  (496) 
37.78626

>  <N_hits>  (496) 
2

>  <submitter_name>  (496) 
nan

>  <original SMILES>  (496) 
nan

>  <∆G_unbound>  (496) 
2.344748

>  <∆G_bound>  (496) 
-6.047338

>  <regarded>  (496) 
5CMS_0_P_δ,5CB5_0_B_β

>  <ref_pdb>  (496) 
nan

>  <smiles>  (496) 
NC1NCNC2NC(CCO[PH]([O-])(O)O[PH]([O-])(O)O)NC12

>  <submitter_email>  (496) 
nan

>  <disregarded>  (496) 


>  <LE>  (496) 
-0.399623

>  <submitter_institution>  (496) 
nan

>  <ref_mols>  (496) 
5CMS_0_P,5CB5_0_B

>  <N_constrained_atoms>  (496) 
19.0

>  <ref_url>  (496) 
nan

>  <method>  (496) 
nan

>  <comRMSD>  (496) 
0.701526

>  <N_unconstrained_atoms>  (496) 
2.0

>  <∆∆G>  (496) 
-8.392086

>  <runtime>  (496) 
33.146558

>  <generation_date>  (496) 
nan

$$$$
5LW0_0_A_δ-mArh-x0631_0_A_α
     RDKit          3D

 25 27  0  0  0  0  0  0  0  0999 V2000
   -4.4800   15.3730    1.6690 N   0  0  0  0  0  0  0  0  0  0  0  0
   -3.1490   15.3530    1.0850 C   0  0  2  0  0  0  0  0  0  0  0  0
   -3.0920   15.0340   -0.4110 C   0  0  1  0  0  0  0  0  0  0  0  0
   -2.2800   14.4760    1.8580 N   0  0  0  0  0  0  0  0  0  0  0  0
   -1.7960   14.2980   -0.6690 C   0  0  1  0  0  0  0  0  0  0  0  0
   -3.9770   14.1360   -1.1280 N   0  0  0  0  0  0  0  0  0  0  0  0
   -0.8850   14.3060    1.4000 C   0  0  0  0  0  0  0  0  0  0  0  0
   -1.7630   14.2640   -2.1250 N   0  0  0  0  0  0  0  0  0  0  0  0
   -3.2260   14.1470   -2.4100 C   0  0  0  0  0  0  0  0  0  0  0  0
   -0.7120   14.8730    0.0800 N   0  0  0  0  0  0  0  0  0  0  0  0
   -1.0050   13.1410   -2.7190 C   0  0  0  0  0  0  0  0  0  0  0  0
   -0.4080   13.4480   -4.1120 C   0  0  0  0  0  0  0  0  0  0  0  0
    0.2670   12.2590   -4.8260 C   0  0  0  0  0  0  0  0  0  0  0  0
    0.4540   12.4270   -6.3400 C   0  0  0  0  0  0  0  0  0  0  0  0
    0.7150   11.1110   -7.0930 C   0  0  0  0  0  0  0  0  0  0  0  0
    0.1280   11.0000   -8.5130 C   0  0  0  0  0  0  0  0  0  0  0  0
    0.8540   10.0080   -9.4460 C   0  0  0  0  0  0  0  0  0  0  0  0
    1.5920   10.5760  -10.5880 N   0  0  0  0  0  0  0  0  0  0  0  0
    1.9850    9.5420  -11.5380 C   0  0  2  0  0  0  0  0  0  0  0  0
    2.9630    8.7110  -10.9360 O   0  0  0  0  0  0  0  0  0  0  0  0
    2.5040   10.0530  -12.9200 C   0  0  2  0  0  0  0  0  0  0  0  0
    3.8730    9.6630  -13.1250 O   0  0  0  0  0  0  0  0  0  0  0  0
    2.5040   11.5450  -13.2100 C   0  0  0  0  0  0  0  0  0  0  0  0
    4.2760   10.3510  -14.3160 C   0  0  0  0  0  0  0  0  0  0  0  0
    3.4880   11.6480  -14.3670 C   0  0  0  0  0  0  0  0  0  0  0  0
  2  1  1  1
  2  3  1  0
  2  4  1  0
  3  5  1  0
  3  6  1  1
  4  7  1  0
  5  8  1  0
  6  9  1  0
  8  9  1  0
  5 10  1  6
  7 10  1  0
  8 11  1  0
 11 12  1  0
 12 13  1  0
 13 14  1  0
 14 15  1  0
 15 16  1  0
 16 17  1  0
 17 18  1  0
 18 19  1  0
 19 20  1  1
 19 21  1  0
 21 22  1  0
 21 23  1  1
 22 24  1  0
 23 25  1  0
 24 25  1  0
M  END
>  <%Rank>  (497) 
37.862595

>  <N_hits>  (497) 
2

>  <submitter_name>  (497) 
nan

>  <original SMILES>  (497) 
nan

>  <∆G_unbound>  (497) 
0.697375

>  <∆G_bound>  (497) 
-5.710231

>  <regarded>  (497) 
5LW0_0_A_δ,mArh-x0631_0_A_α

>  <ref_pdb>  (497) 
nan

>  <smiles>  (497) 
NC1NCNC2C1NCN2CCCCCCCNC(O)C1CCCO1

>  <submitter_email>  (497) 
nan

>  <disregarded>  (497) 


>  <LE>  (497) 
-0.256304

>  <submitter_institution>  (497) 
nan

>  <ref_mols>  (497) 
5LW0_0_A,mArh-x0631_0_A

>  <N_constrained_atoms>  (497) 
18.0

>  <ref_url>  (497) 
nan

>  <method>  (497) 
nan

>  <comRMSD>  (497) 
0.467834

>  <N_unconstrained_atoms>  (497) 
7.0

>  <∆∆G>  (497) 
-6.407606

>  <runtime>  (497) 
30.102148

>  <generation_date>  (497) 
nan

$$$$
mArh-5cms_P_15_P_α-mArh-4iqy_B_0_B_β
     RDKit          3D

 17 17  0  0  0  0  0  0  0  0999 V2000
   -1.8930   21.3140   -8.4960 C   0  0  0  0  0  0  0  0  0  0  0  0
   -0.7190   20.1130   -7.8330 P   0  0  2  0  0  0  0  0  0  0  0  0
   -1.3720   19.6270   -6.4550 O   0  0  0  0  0  0  0  0  0  0  0  0
   -1.6600   21.8690   -9.9010 C   0  0  1  0  0  0  0  0  0  0  0  0
    0.6880   20.5920   -7.6920 O   0  0  0  0  0  0  0  0  0  0  0  0
   -0.7530   18.7680   -8.7090 O   0  0  0  0  0  0  0  0  0  0  0  0
   -2.9220   22.2000  -10.5330 O   0  0  0  0  0  0  0  0  0  0  0  0
   -0.8000   23.1470   -9.9070 C   0  0  1  0  0  0  0  0  0  0  0  0
    0.4700   23.0180  -10.5250 O   0  0  0  0  0  0  0  0  0  0  0  0
   -1.6690   18.1340   -5.9820 P   0  0  0  0  0  0  0  0  0  0  0  0
   -3.0500   23.6190  -10.4620 C   0  0  1  0  0  0  0  0  0  0  0  0
   -1.6300   24.1790  -10.6320 C   0  0  2  0  0  0  0  0  0  0  0  0
   -3.9720   24.1150  -11.4110 O   0  0  0  0  0  0  0  0  0  0  0  0
   -1.2980   24.3720  -11.9970 O   0  0  0  0  0  0  0  0  0  0  0  0
   -0.3420   17.3130   -6.2710 O   0  0  0  0  0  0  0  0  0  0  0  0
   -2.1500   17.9090   -4.6170 O   0  0  0  0  0  0  0  0  0  0  0  0
   -2.6920   17.5480   -7.0390 O   0  0  0  0  0  0  0  0  0  0  0  0
  1  2  1  0
  2  3  1  0
  4  1  1  1
  2  5  2  0
  2  6  1  6
  4  7  1  0
  4  8  1  0
  8  9  1  6
  3 10  1  0
  7 11  1  0
  8 12  1  0
 11 12  1  0
 11 13  1  6
 12 14  1  6
 10 15  1  0
 10 16  2  0
 10 17  1  0
M  END
>  <%Rank>  (498) 
37.938931

>  <N_hits>  (498) 
2

>  <submitter_name>  (498) 
nan

>  <original SMILES>  (498) 
nan

>  <∆G_unbound>  (498) 
1.703844

>  <∆G_bound>  (498) 
-7.044997

>  <regarded>  (498) 
mArh-5cms_P_15_P_α,mArh-4iqy_B_0_B_β

>  <ref_pdb>  (498) 
nan

>  <smiles>  (498) 
O=P(O)(O)OP(=O)(O)CC1OC(O)C(O)C1O

>  <submitter_email>  (498) 
nan

>  <disregarded>  (498) 


>  <LE>  (498) 
-0.514638

>  <submitter_institution>  (498) 
nan

>  <ref_mols>  (498) 
mArh-5cms_P_15_P,mArh-4iqy_B_0_B

>  <N_constrained_atoms>  (498) 
17.0

>  <ref_url>  (498) 
nan

>  <method>  (498) 
nan

>  <comRMSD>  (498) 
0.771672

>  <N_unconstrained_atoms>  (498) 
0.0

>  <∆∆G>  (498) 
-8.748841

>  <runtime>  (498) 
36.569121

>  <generation_date>  (498) 
nan

$$$$
mArh-5cms_P_15_P_β-mArh-x0159_0_B_β
     RDKit          3D

 25 26  0  0  0  0  0  0  0  0999 V2000
   -0.8840   20.7220   -8.2240 O   0  0  0  0  0  0  0  0  0  0  0  0
   -0.3650   19.3340   -7.6540 P   0  0  0  0  0  0  0  0  0  0  0  0
   -1.6550   18.5630   -7.1460 O   0  0  0  0  0  0  0  0  0  0  0  0
    0.7960   19.4740   -6.7470 O   0  0  0  0  0  0  0  0  0  0  0  0
    0.0570   18.5640   -8.9620 O   0  0  0  0  0  0  0  0  0  0  0  0
   -1.8410   17.5190   -5.9550 P   0  0  0  0  0  0  0  0  0  0  0  0
   -0.4730   16.6250   -5.8560 O   0  0  0  0  0  0  0  0  0  0  0  0
   -3.0990   16.7400   -6.0980 O   0  0  0  0  0  0  0  0  0  0  0  0
   -1.8030   18.4610   -4.6690 O   0  0  0  0  0  0  0  0  0  0  0  0
   -0.3120   15.4960   -4.9420 C   0  0  0  0  0  0  0  0  0  0  0  0
   -0.8370   14.0910   -5.4220 C   0  0  0  0  0  0  0  0  0  0  0  0
    0.2330   13.0710   -5.9640 C   0  0  0  0  0  0  0  0  0  0  0  0
   -0.3360   11.9360   -6.8920 C   0  0  0  0  0  0  0  0  0  0  0  0
    0.7380   11.0300   -7.5950 C   0  0  0  0  0  0  0  0  0  0  0  0
    0.5470   10.7870   -9.1320 C   0  0  0  0  0  0  0  0  0  0  0  0
    1.2410    9.5770   -9.6890 N   0  0  0  0  0  0  0  0  0  0  0  0
    2.0050    9.6640  -10.8360 C   0  0  0  0  0  0  0  0  0  0  0  0
    1.8740   10.7490  -11.6640 N   0  0  0  0  0  0  0  0  0  0  0  0
    2.9250    8.8320  -11.3240 N   0  0  0  0  0  0  0  0  0  0  0  0
    2.7560   10.6330  -12.7190 C   0  0  0  0  0  0  0  0  0  0  0  0
    3.4050    9.4250  -12.4860 C   0  0  0  0  0  0  0  0  0  0  0  0
    3.0300   11.4590  -13.8110 C   0  0  0  0  0  0  0  0  0  0  0  0
    4.3970    9.0010  -13.3950 C   0  0  0  0  0  0  0  0  0  0  0  0
    4.0180   11.0250  -14.6990 C   0  0  0  0  0  0  0  0  0  0  0  0
    4.6940    9.8180  -14.5010 C   0  0  0  0  0  0  0  0  0  0  0  0
  1  2  1  0
  2  3  1  0
  2  4  2  0
  2  5  1  0
  3  6  1  0
  6  7  1  0
  6  8  2  0
  6  9  1  0
  7 10  1  0
 10 11  1  0
 11 12  1  0
 12 13  1  0
 13 14  1  0
 14 15  1  0
 15 16  1  0
 16 17  1  0
 17 18  1  0
 17 19  2  0
 18 20  1  0
 19 21  1  0
 20 21  2  0
 20 22  1  0
 21 23  1  0
 22 24  2  0
 23 25  2  0
 24 25  1  0
M  END
>  <%Rank>  (499) 
38.015267

>  <N_hits>  (499) 
2

>  <submitter_name>  (499) 
nan

>  <original SMILES>  (499) 
nan

>  <∆G_unbound>  (499) 
0.406347

>  <∆G_bound>  (499) 
-11.509933

>  <regarded>  (499) 
mArh-5cms_P_15_P_β,mArh-x0159_0_B_β

>  <ref_pdb>  (499) 
nan

>  <smiles>  (499) 
O=P(O)(O)OP(=O)(O)OCCCCCCNc1nc2ccccc2[nH]1

>  <submitter_email>  (499) 
nan

>  <disregarded>  (499) 


>  <LE>  (499) 
-0.476651

>  <submitter_institution>  (499) 
nan

>  <ref_mols>  (499) 
mArh-5cms_P_15_P,mArh-x0159_0_B

>  <N_constrained_atoms>  (499) 
19.0

>  <ref_url>  (499) 
nan

>  <method>  (499) 
nan

>  <comRMSD>  (499) 
0.636629

>  <N_unconstrained_atoms>  (499) 
6.0

>  <∆∆G>  (499) 
-11.91628

>  <runtime>  (499) 
51.720485

>  <generation_date>  (499) 
nan

$$$$
mArh-EU0860_0_A_β-5CMS_0_K_γ
     RDKit          3D

 22 23  0  0  0  0  0  0  0  0999 V2000
    2.1460    9.4000  -11.2410 N   0  0  0  0  0  0  0  0  0  0  0  0
    2.8540    9.8060  -12.3710 C   0  0  0  0  0  0  0  0  0  0  0  0
    3.9300    9.0220  -12.8020 C   0  0  0  0  0  0  0  0  0  0  0  0
    2.5130   10.9650  -13.0650 C   0  0  0  0  0  0  0  0  0  0  0  0
    1.3310   11.8030  -12.5940 C   0  0  0  0  0  0  0  0  0  0  0  0
    3.2860   11.3280  -14.2060 C   0  0  0  0  0  0  0  0  0  0  0  0
    4.6800    9.3770  -13.9160 C   0  0  0  0  0  0  0  0  0  0  0  0
    1.2260   12.1330  -11.0830 C   0  0  0  0  0  0  0  0  0  0  0  0
    4.3610   10.5240  -14.6140 C   0  0  0  0  0  0  0  0  0  0  0  0
    5.1300   10.8270  -15.7010 O   0  0  0  0  0  0  0  0  0  0  0  0
    0.5460   11.1810  -10.0240 C   0  0  0  0  0  0  0  0  0  0  0  0
    1.2680   10.9560   -8.6390 C   0  0  0  0  0  0  0  0  0  0  0  0
    0.5830   11.5200   -7.3370 C   0  0  0  0  0  0  0  0  0  0  0  0
    1.4520   12.3310   -6.3150 C   0  0  0  0  0  0  0  0  0  0  0  0
    0.8260   12.6520   -5.0680 O   0  0  0  0  0  0  0  0  0  0  0  0
    0.0940   13.9120   -5.1720 C   0  0  2  0  0  0  0  0  0  0  0  0
    0.8500   15.1300   -4.5800 C   0  0  1  0  0  0  0  0  0  0  0  0
   -1.1230   13.7950   -4.2720 C   0  0  1  0  0  0  0  0  0  0  0  0
   -1.5470   12.4500   -4.1550 O   0  0  0  0  0  0  0  0  0  0  0  0
    0.6460   16.4350   -5.3450 C   0  0  0  0  0  0  0  0  0  0  0  0
   -0.6630   14.3980   -2.9560 C   0  0  0  0  0  0  0  0  0  0  0  0
    0.3290   15.3860   -3.2570 O   0  0  0  0  0  0  0  0  0  0  0  0
  1  2  1  0
  2  3  2  0
  2  4  1  0
  4  5  1  0
  4  6  2  0
  3  7  1  0
  5  8  1  0
  6  9  1  0
  7  9  2  0
  9 10  1  0
  8 11  1  0
 11 12  1  0
 12 13  1  0
 13 14  1  0
 14 15  1  0
 16 15  1  1
 16 17  1  0
 16 18  1  0
 18 19  1  1
 17 20  1  6
 18 21  1  0
 17 22  1  0
 21 22  1  0
M  END
>  <%Rank>  (500) 
38.091603

>  <N_hits>  (500) 
2

>  <submitter_name>  (500) 
nan

>  <original SMILES>  (500) 
nan

>  <∆G_unbound>  (500) 
0.772152

>  <∆G_bound>  (500) 
-6.765488

>  <regarded>  (500) 
mArh-EU0860_0_A_β,5CMS_0_K_γ

>  <ref_pdb>  (500) 
nan

>  <smiles>  (500) 
CC1OCC(O)C1OCCCCCCc1cc(O)ccc1N

>  <submitter_email>  (500) 
nan

>  <disregarded>  (500) 


>  <LE>  (500) 
-0.34262

>  <submitter_institution>  (500) 
nan

>  <ref_mols>  (500) 
mArh-EU0860_0_A,5CMS_0_K

>  <N_constrained_atoms>  (500) 
16.0

>  <ref_url>  (500) 
nan

>  <method>  (500) 
nan

>  <comRMSD>  (500) 
0.47627

>  <N_unconstrained_atoms>  (500) 
6.0

>  <∆∆G>  (500) 
-7.53764

>  <runtime>  (500) 
32.433305

>  <generation_date>  (500) 
nan

$$$$
mArh-2fav_B_0_B_γ-5L9K_0_B_β
     RDKit          3D

 18 18  0  0  0  0  0  0  0  0999 V2000
   -0.4070   12.7410   -4.7720 O   0  0  0  0  0  0  0  0  0  0  0  0
   -0.3020   14.1080   -4.4810 C   0  0  1  0  0  0  0  0  0  0  0  0
    0.0140   14.1700   -2.9840 C   0  0  0  0  0  0  0  0  0  0  0  0
    0.9960   14.6970   -5.0040 C   0  0  2  0  0  0  0  0  0  0  0  0
    1.9800   13.7470   -4.8830 O   0  0  0  0  0  0  0  0  0  0  0  0
    0.5390   15.4630   -2.8300 O   0  0  0  0  0  0  0  0  0  0  0  0
    1.2390   15.7840   -4.0350 C   0  0  2  0  0  0  0  0  0  0  0  0
    0.7270   17.1400   -4.3480 C   0  0  0  0  0  0  0  0  0  0  0  0
    0.5040   17.5120   -5.8350 C   0  0  0  0  0  0  0  0  0  0  0  0
   -0.8570   17.2390   -6.1130 O   0  0  0  0  0  0  0  0  0  0  0  0
   -1.9420   18.3020   -6.0530 P   0  0  0  0  0  0  0  0  0  0  0  0
   -0.9730   19.5470   -6.5420 O   0  0  0  0  0  0  0  0  0  0  0  0
   -2.1270   18.0070   -4.5060 O   0  0  0  0  0  0  0  0  0  0  0  0
   -2.9420   17.5160   -7.0930 O   0  0  0  0  0  0  0  0  0  0  0  0
   -0.7290   19.9760   -7.9720 P   0  0  0  0  0  0  0  0  0  0  0  0
   -2.2490   20.7230   -7.9940 O   0  0  0  0  0  0  0  0  0  0  0  0
   -0.5560   18.4490   -8.4980 O   0  0  0  0  0  0  0  0  0  0  0  0
    0.5480   20.9080   -7.7260 O   0  0  0  0  0  0  0  0  0  0  0  0
  2  1  1  6
  2  3  1  0
  2  4  1  0
  4  5  1  1
  3  6  1  0
  4  7  1  0
  6  7  1  0
  7  8  1  6
  8  9  1  0
  9 10  1  0
 10 11  1  0
 11 12  1  0
 11 13  1  0
 11 14  1  0
 12 15  1  0
 15 16  1  0
 15 17  1  0
 15 18  1  0
M  CHG  2  13  -1  17  -1
M  END
>  <%Rank>  (501) 
38.167939

>  <N_hits>  (501) 
2

>  <submitter_name>  (501) 
nan

>  <original SMILES>  (501) 
nan

>  <∆G_unbound>  (501) 
0.874658

>  <∆G_bound>  (501) 
-7.681781

>  <regarded>  (501) 
mArh-2fav_B_0_B_γ,5L9K_0_B_β

>  <ref_pdb>  (501) 
nan

>  <smiles>  (501) 
[O-][PH](O)(O)O[PH]([O-])(O)OCCC1OCC(O)C1O

>  <submitter_email>  (501) 
nan

>  <disregarded>  (501) 


>  <LE>  (501) 
-0.475358

>  <submitter_institution>  (501) 
nan

>  <ref_mols>  (501) 
mArh-2fav_B_0_B,5L9K_0_B

>  <N_constrained_atoms>  (501) 
17.0

>  <ref_url>  (501) 
nan

>  <method>  (501) 
nan

>  <comRMSD>  (501) 
0.723678

>  <N_unconstrained_atoms>  (501) 
1.0

>  <∆∆G>  (501) 
-8.556439

>  <runtime>  (501) 
31.976784

>  <generation_date>  (501) 
nan

$$$$
mArh-x0855_0_A_α-5CB5_0_B_δ
     RDKit          3D

 22 24  0  0  0  0  0  0  0  0999 V2000
    2.1080   12.5540   -2.8300 O   0  0  0  0  0  0  0  0  0  0  0  0
    0.7720   12.2200   -3.1940 C   0  0  0  0  0  0  0  0  0  0  0  0
    0.6420   12.4040   -4.7170 C   0  0  0  0  0  0  0  0  0  0  0  0
    0.5950   10.8540   -2.8460 O   0  0  0  0  0  0  0  0  0  0  0  0
   -0.1470   13.1150   -2.3700 C   0  0  0  0  0  0  0  0  0  0  0  0
   -1.4290   13.5480   -3.0970 C   0  0  0  0  0  0  0  0  0  0  0  0
   -0.4060   11.5780   -5.2560 N   0  0  0  0  0  0  0  0  0  0  0  0
   -0.3030   10.6370   -6.2360 C   0  0  0  0  0  0  0  0  0  0  0  0
   -1.6600   11.7000   -4.7680 N   0  0  0  0  0  0  0  0  0  0  0  0
   -2.0950   14.6020   -2.3590 N   0  0  0  0  0  0  0  0  0  0  0  0
   -1.5580   10.1180   -6.3710 C   0  0  0  0  0  0  0  0  0  0  0  0
   -2.3620   10.8000   -5.4550 C   0  0  0  0  0  0  0  0  0  0  0  0
   -1.9200   14.5300   -0.9300 C   0  0  2  0  0  0  0  0  0  0  0  0
   -3.5720   14.4850   -2.4980 C   0  0  0  0  0  0  0  0  0  0  0  0
   -2.1290    8.7730   -7.5230 Br  0  0  0  0  0  0  0  0  0  0  0  0
   -3.1770   15.2480   -0.4940 C   0  0  1  0  0  0  0  0  0  0  0  0
   -4.1370   14.4020   -1.1470 N   0  0  0  0  0  0  0  0  0  0  0  0
   -0.6110   14.9620   -0.4220 N   0  0  0  0  0  0  0  0  0  0  0  0
   -0.6470   15.1480    1.0070 C   0  0  0  0  0  0  0  0  0  0  0  0
   -3.0840   15.4420    1.0090 C   0  0  1  0  0  0  0  0  0  0  0  0
   -4.2580   15.0080    1.7130 N   0  0  0  0  0  0  0  0  0  0  0  0
   -1.9340   14.7480    1.5670 N   0  0  0  0  0  0  0  0  0  0  0  0
  2  1  1  0
  2  3  1  0
  2  4  1  0
  2  5  1  0
  5  6  1  0
  3  7  1  0
  7  8  1  0
  7  9  1  0
  6 10  1  0
  8 11  2  0
  9 12  2  0
 11 12  1  0
 10 13  1  0
 10 14  1  0
 11 15  1  0
 13 16  1  0
 14 17  1  0
 16 17  1  1
 13 18  1  6
 18 19  1  0
 16 20  1  0
 20 21  1  1
 19 22  1  0
 20 22  1  0
M  END
>  <%Rank>  (502) 
38.244275

>  <N_hits>  (502) 
2

>  <submitter_name>  (502) 
nan

>  <original SMILES>  (502) 
nan

>  <∆G_unbound>  (502) 
2.267325

>  <∆G_bound>  (502) 
-1.417434

>  <regarded>  (502) 
mArh-x0855_0_A_α,5CB5_0_B_δ

>  <ref_pdb>  (502) 
nan

>  <smiles>  (502) 
NC1NCNC2C1NCN2CCC(O)(O)Cn1cc(Br)cn1

>  <submitter_email>  (502) 
nan

>  <disregarded>  (502) 


>  <LE>  (502) 
-0.167489

>  <submitter_institution>  (502) 
nan

>  <ref_mols>  (502) 
mArh-x0855_0_A,5CB5_0_B

>  <N_constrained_atoms>  (502) 
20.0

>  <ref_url>  (502) 
nan

>  <method>  (502) 
nan

>  <comRMSD>  (502) 
0.610008

>  <N_unconstrained_atoms>  (502) 
2.0

>  <∆∆G>  (502) 
-3.684759

>  <runtime>  (502) 
36.093946

>  <generation_date>  (502) 
nan

$$$$
5CMS_0_P_δ-5CB3_0_A_β
     RDKit          3D

 21 22  0  0  0  0  0  0  0  0999 V2000
   -3.7090   15.6160    1.4220 N   0  0  0  0  0  0  0  0  0  0  0  0
   -2.6630   14.6390    1.2520 C   0  0  1  0  0  0  0  0  0  0  0  0
   -2.5360   14.1380   -0.1610 C   0  0  2  0  0  0  0  0  0  0  0  0
   -1.4150   15.2960    1.5070 N   0  0  0  0  0  0  0  0  0  0  0  0
   -1.2400   14.7390   -0.7240 C   0  0  2  0  0  0  0  0  0  0  0  0
   -3.5160   14.5350   -1.0810 N   0  0  0  0  0  0  0  0  0  0  0  0
   -0.2790   14.4530    1.3230 C   0  0  0  0  0  0  0  0  0  0  0  0
   -1.4040   14.4320   -2.0790 N   0  0  0  0  0  0  0  0  0  0  0  0
   -2.8060   14.5990   -2.3540 C   0  0  2  0  0  0  0  0  0  0  0  0
   -0.1690   14.0600   -0.0750 N   0  0  0  0  0  0  0  0  0  0  0  0
   -2.9630   15.9500   -2.9240 C   0  0  0  0  0  0  0  0  0  0  0  0
   -1.8470   16.3660   -3.8710 C   0  0  0  0  0  0  0  0  0  0  0  0
   -1.8990   17.7020   -4.2090 O   0  0  0  0  0  0  0  0  0  0  0  0
   -1.9010   18.1050   -5.7710 P   0  0  0  0  0  0  0  0  0  0  0  0
   -1.1890   19.4540   -6.3850 O   0  0  0  0  0  0  0  0  0  0  0  0
   -0.6860   17.2540   -6.1000 O   0  0  0  0  0  0  0  0  0  0  0  0
   -2.8170   17.1870   -6.8120 O   0  0  0  0  0  0  0  0  0  0  0  0
   -0.4950   19.2230   -7.6850 P   0  0  0  0  0  0  0  0  0  0  0  0
   -1.4870   20.2990   -8.4700 O   0  0  0  0  0  0  0  0  0  0  0  0
    0.9160   19.8350   -7.1450 O   0  0  0  0  0  0  0  0  0  0  0  0
    0.2100   18.7970   -8.9410 O   0  0  0  0  0  0  0  0  0  0  0  0
  2  1  1  6
  2  3  1  0
  2  4  1  0
  3  5  1  0
  3  6  1  6
  4  7  1  0
  5  8  1  6
  6  9  1  0
  8  9  1  0
  5 10  1  0
  7 10  1  0
  9 11  1  1
 11 12  1  0
 12 13  1  0
 13 14  1  0
 14 15  1  0
 14 16  1  0
 14 17  1  0
 15 18  1  0
 18 19  1  0
 18 20  1  0
 18 21  1  0
M  CHG  2  17  -1  20  -1
M  END
>  <%Rank>  (503) 
38.320611

>  <N_hits>  (503) 
2

>  <submitter_name>  (503) 
nan

>  <original SMILES>  (503) 
nan

>  <∆G_unbound>  (503) 
2.344748

>  <∆G_bound>  (503) 
-5.957536

>  <regarded>  (503) 
5CMS_0_P_δ,5CB3_0_A_β

>  <ref_pdb>  (503) 
nan

>  <smiles>  (503) 
NC1NCNC2NC(CCO[PH]([O-])(O)O[PH]([O-])(O)O)NC12

>  <submitter_email>  (503) 
nan

>  <disregarded>  (503) 


>  <LE>  (503) 
-0.395347

>  <submitter_institution>  (503) 
nan

>  <ref_mols>  (503) 
5CMS_0_P,5CB3_0_A

>  <N_constrained_atoms>  (503) 
19.0

>  <ref_url>  (503) 
nan

>  <method>  (503) 
nan

>  <comRMSD>  (503) 
0.702576

>  <N_unconstrained_atoms>  (503) 
2.0

>  <∆∆G>  (503) 
-8.302284

>  <runtime>  (503) 
32.595161

>  <generation_date>  (503) 
nan

$$$$
5L9K_0_B_δ-2BFQ_1_A_β
     RDKit          3D

 21 22  0  0  0  0  0  0  0  0999 V2000
   -4.3150   15.8470    1.7910 N   0  0  0  0  0  0  0  0  0  0  0  0
   -3.4750   14.9410    1.0130 C   0  0  1  0  0  0  0  0  0  0  0  0
   -3.0120   15.6510   -0.2150 C   0  0  1  0  0  0  0  0  0  0  0  0
   -2.3410   14.6550    1.8430 N   0  0  0  0  0  0  0  0  0  0  0  0
   -1.8750   15.0000   -0.9090 C   0  0  2  0  0  0  0  0  0  0  0  0
   -3.9500   15.7260   -1.3150 N   0  0  0  0  0  0  0  0  0  0  0  0
   -1.0670   15.0080    1.2670 C   0  0  0  0  0  0  0  0  0  0  0  0
   -2.5200   14.1490   -1.7950 N   0  0  0  0  0  0  0  0  0  0  0  0
   -3.3100   15.0830   -2.4970 C   0  0  2  0  0  0  0  0  0  0  0  0
   -0.9840   14.3030    0.0140 N   0  0  0  0  0  0  0  0  0  0  0  0
   -2.2760   15.8770   -3.2580 C   0  0  0  0  0  0  0  0  0  0  0  0
   -2.6010   16.6070   -4.5120 C   0  0  0  0  0  0  0  0  0  0  0  0
   -2.1410   17.9100   -4.4070 O   0  0  0  0  0  0  0  0  0  0  0  0
   -1.6450   18.4540   -5.9050 P   0  0  0  0  0  0  0  0  0  0  0  0
   -0.7360   19.6560   -6.2290 O   0  0  0  0  0  0  0  0  0  0  0  0
   -0.6940   17.3520   -6.0680 O   0  0  0  0  0  0  0  0  0  0  0  0
   -2.7200   17.8460   -7.0700 O   0  0  0  0  0  0  0  0  0  0  0  0
   -0.5800   20.4490   -7.6100 P   0  0  0  0  0  0  0  0  0  0  0  0
   -1.7860   20.8380   -8.6140 O   0  0  0  0  0  0  0  0  0  0  0  0
   -0.1070   19.2370   -8.4330 O   0  0  0  0  0  0  0  0  0  0  0  0
    0.9290   21.1390   -7.8600 O   0  0  0  0  0  0  0  0  0  0  0  0
  2  1  1  1
  2  3  1  0
  2  4  1  0
  3  5  1  0
  3  6  1  6
  4  7  1  0
  5  8  1  6
  6  9  1  0
  8  9  1  0
  5 10  1  0
  7 10  1  0
  9 11  1  1
 11 12  1  0
 12 13  1  0
 13 14  1  0
 14 15  1  0
 14 16  1  0
 14 17  1  0
 15 18  1  0
 18 19  1  0
 18 20  1  0
 18 21  1  0
M  CHG  1  20  -1
M  END
>  <%Rank>  (504) 
38.396947

>  <N_hits>  (504) 
2

>  <submitter_name>  (504) 
nan

>  <original SMILES>  (504) 
nan

>  <∆G_unbound>  (504) 
1.532713

>  <∆G_bound>  (504) 
-6.068917

>  <regarded>  (504) 
5L9K_0_B_δ,2BFQ_1_A_β

>  <ref_pdb>  (504) 
nan

>  <smiles>  (504) 
NC1NCNC2NC(CCO[PH](O)(O)O[PH]([O-])(O)O)NC12

>  <submitter_email>  (504) 
nan

>  <disregarded>  (504) 


>  <LE>  (504) 
-0.361982

>  <submitter_institution>  (504) 
nan

>  <ref_mols>  (504) 
5L9K_0_B,2BFQ_1_A

>  <N_constrained_atoms>  (504) 
19.0

>  <ref_url>  (504) 
nan

>  <method>  (504) 
nan

>  <comRMSD>  (504) 
0.68599

>  <N_unconstrained_atoms>  (504) 
2.0

>  <∆∆G>  (504) 
-7.60163

>  <runtime>  (504) 
30.123164

>  <generation_date>  (504) 
nan

$$$$
mArh-5cms_P_15_P_β-5L9K_0_A_α
     RDKit          3D

 19 19  0  0  0  0  0  0  0  0999 V2000
    0.2960   20.7900   -8.3670 O   0  0  0  0  0  0  0  0  0  0  0  0
    0.1660   19.5090   -7.4470 P   0  0  0  0  0  0  0  0  0  0  0  0
   -1.2350   19.7760   -6.7850 N   0  0  0  0  0  0  0  0  0  0  0  0
    1.4140   19.3740   -6.6710 O   0  0  0  0  0  0  0  0  0  0  0  0
    0.0260   18.4230   -8.6120 O   0  0  0  0  0  0  0  0  0  0  0  0
   -1.6940   18.3240   -6.2230 P   0  0  0  0  0  0  0  0  0  0  0  0
   -2.0530   20.3640   -7.7770 C   0  0  0  0  0  0  0  0  0  0  0  0
   -0.3630   17.4280   -6.2700 O   0  0  0  0  0  0  0  0  0  0  0  0
   -2.7770   17.5090   -6.8190 O   0  0  0  0  0  0  0  0  0  0  0  0
   -1.7980   18.3990   -4.6390 O   0  0  0  0  0  0  0  0  0  0  0  0
   -2.0890   21.8560   -7.9550 C   0  0  0  0  0  0  0  0  0  0  0  0
   -3.4100   22.3780   -7.4860 C   0  0  2  0  0  0  0  0  0  0  0  0
   -4.4260   21.4530   -7.8490 O   0  0  0  0  0  0  0  0  0  0  0  0
   -4.0050   23.6910   -7.8990 C   0  0  1  0  0  0  0  0  0  0  0  0
   -4.5620   23.8710   -9.2060 O   0  0  0  0  0  0  0  0  0  0  0  0
   -5.5450   22.0320   -7.2230 C   0  0  1  0  0  0  0  0  0  0  0  0
   -5.1420   23.4850   -6.9300 C   0  0  2  0  0  0  0  0  0  0  0  0
   -6.6310   21.9430   -8.1150 O   0  0  0  0  0  0  0  0  0  0  0  0
   -6.2180   24.3730   -7.0930 O   0  0  0  0  0  0  0  0  0  0  0  0
  1  2  1  0
  2  3  1  0
  2  4  2  0
  2  5  1  0
  3  6  1  0
  3  7  1  0
  6  8  1  0
  6  9  2  0
  6 10  1  0
  7 11  1  0
 12 11  1  6
 12 13  1  0
 12 14  1  0
 14 15  1  6
 13 16  1  0
 14 17  1  0
 16 17  1  0
 16 18  1  6
 17 19  1  6
M  END
>  <%Rank>  (505) 
38.473282

>  <N_hits>  (505) 
2

>  <submitter_name>  (505) 
nan

>  <original SMILES>  (505) 
nan

>  <∆G_unbound>  (505) 
2.189362

>  <∆G_bound>  (505) 
-10.593475

>  <regarded>  (505) 
mArh-5cms_P_15_P_β,5L9K_0_A_α

>  <ref_pdb>  (505) 
nan

>  <smiles>  (505) 
O=P(O)(O)N(CCC1OC(O)C(O)C1O)P(=O)(O)O

>  <submitter_email>  (505) 
nan

>  <disregarded>  (505) 


>  <LE>  (505) 
-0.672781

>  <submitter_institution>  (505) 
nan

>  <ref_mols>  (505) 
mArh-5cms_P_15_P,5L9K_0_A

>  <N_constrained_atoms>  (505) 
18.0

>  <ref_url>  (505) 
nan

>  <method>  (505) 
nan

>  <comRMSD>  (505) 
0.847652

>  <N_unconstrained_atoms>  (505) 
1.0

>  <∆∆G>  (505) 
-12.782837

>  <runtime>  (505) 
39.802994

>  <generation_date>  (505) 
nan

$$$$
mArh-x0918_4_B_α-6VXS_0_B_α
     RDKit          3D

 26 27  0  0  0  0  0  0  0  0999 V2000
   14.8040   23.1290   13.8310 N   0  0  0  0  0  0  0  0  0  0  0  0
   14.0460   21.9560   13.7750 C   0  0  0  0  0  0  0  0  0  0  0  0
   14.5920   20.8250   13.1580 C   0  0  0  0  0  0  0  0  0  0  0  0
   12.7540   21.9090   14.3070 C   0  0  0  0  0  0  0  0  0  0  0  0
   12.1190   23.1570   14.9500 C   0  0  0  0  0  0  0  0  0  0  0  0
   12.0930   20.6640   14.1840 C   0  0  0  0  0  0  0  0  0  0  0  0
   13.8490   19.6660   13.0850 C   0  0  0  0  0  0  0  0  0  0  0  0
   12.6110   24.5460   14.3780 C   0  0  0  0  0  0  0  0  0  0  0  0
   12.6070   19.5530   13.5910 N   0  0  0  0  0  0  0  0  0  0  0  0
   11.6240   25.7390   14.1030 C   0  0  0  0  0  0  0  0  0  0  0  0
   11.1810   25.8920   12.6230 C   0  0  0  0  0  0  0  0  0  0  0  0
   10.4910   27.2120   12.0970 C   0  0  0  0  0  0  0  0  0  0  0  0
   11.2010   28.5770   11.7710 C   0  0  0  0  0  0  0  0  0  0  0  0
   11.1970   29.0080   10.3610 O   0  0  0  0  0  0  0  0  0  0  0  0
   10.2200   30.2520    9.9400 S   0  0  0  0  0  0  0  0  0  0  0  0
   10.9940   31.5440    8.9630 C   0  0  0  0  0  0  0  0  0  0  0  0
    9.0110   29.7810    9.0150 O   0  0  0  0  0  0  0  0  0  0  0  0
    9.6480   31.0120   11.2250 O   0  0  0  0  0  0  0  0  0  0  0  0
    9.9410   32.5150    8.3710 C   0  0  0  0  0  0  0  0  0  0  0  0
    9.5870   33.6060    9.3030 N   0  0  0  0  0  0  0  0  0  0  0  0
    8.6200   34.6420    8.8430 C   0  0  0  0  0  0  0  0  0  0  0  0
    8.3550   35.6740    9.9510 C   0  0  0  0  0  0  0  0  0  0  0  0
    7.3240   34.1160    8.1840 C   0  0  0  0  0  0  0  0  0  0  0  0
    7.5170   36.8360    9.4620 C   0  0  0  0  0  0  0  0  0  0  0  0
    6.2730   35.2130    7.9200 C   0  0  0  0  0  0  0  0  0  0  0  0
    6.1820   36.3440    8.9440 C   0  0  0  0  0  0  0  0  0  0  0  0
  1  2  1  0
  2  3  2  0
  2  4  1  0
  4  5  1  0
  4  6  2  0
  3  7  1  0
  5  8  1  0
  6  9  1  0
  7  9  2  0
  8 10  1  0
 10 11  1  0
 11 12  1  0
 12 13  1  0
 13 14  1  0
 15 14  1  0
 15 16  1  0
 15 17  1  0
 15 18  1  0
 16 19  1  0
 19 20  1  0
 20 21  1  0
 21 22  1  0
 21 23  1  0
 22 24  1  0
 23 25  1  0
 24 26  1  0
 25 26  1  0
M  END
>  <%Rank>  (506) 
38.549618

>  <N_hits>  (506) 
2

>  <submitter_name>  (506) 
nan

>  <original SMILES>  (506) 
nan

>  <∆G_unbound>  (506) 
0.340955

>  <∆G_bound>  (506) 
-8.741529

>  <regarded>  (506) 
mArh-x0918_4_B_α,6VXS_0_B_α

>  <ref_pdb>  (506) 
nan

>  <smiles>  (506) 
Nc1ccncc1CCCCCCOS(O)(O)CCNC1CCCCC1

>  <submitter_email>  (506) 
nan

>  <disregarded>  (506) 


>  <LE>  (506) 
-0.349326

>  <submitter_institution>  (506) 
nan

>  <ref_mols>  (506) 
mArh-x0918_4_B,6VXS_0_B

>  <N_constrained_atoms>  (506) 
20.0

>  <ref_url>  (506) 
nan

>  <method>  (506) 
nan

>  <comRMSD>  (506) 
0.604149

>  <N_unconstrained_atoms>  (506) 
6.0

>  <∆∆G>  (506) 
-9.082484

>  <runtime>  (506) 
57.914116

>  <generation_date>  (506) 
nan

$$$$
5CMS_0_H_γ-5CMS_0_B_β
     RDKit          3D

 16 16  0  0  0  0  0  0  0  0999 V2000
   -1.6960   13.0550   -3.9600 O   0  0  0  0  0  0  0  0  0  0  0  0
   -0.4360   13.6380   -3.8960 C   0  0  2  0  0  0  0  0  0  0  0  0
   -0.2930   14.6340   -2.7480 C   0  0  0  0  0  0  0  0  0  0  0  0
   -0.1270   14.4610   -5.1180 C   0  0  2  0  0  0  0  0  0  0  0  0
    1.2190   14.2290   -5.3930 O   0  0  0  0  0  0  0  0  0  0  0  0
    0.2530   15.7780   -3.3550 O   0  0  0  0  0  0  0  0  0  0  0  0
   -0.4110   15.8100   -4.5620 C   0  0  1  0  0  0  0  0  0  0  0  0
   -0.1430   17.0850   -5.3900 C   0  0  0  0  0  0  0  0  0  0  0  0
   -1.6210   17.9820   -5.6960 P   0  0  0  0  0  0  0  0  0  0  0  0
   -1.2100   19.2580   -6.4530 O   0  0  0  0  0  0  0  0  0  0  0  0
   -2.6330   17.6250   -7.0020 O   0  0  0  0  0  0  0  0  0  0  0  0
   -2.1870   18.9950   -4.6140 O   0  0  0  0  0  0  0  0  0  0  0  0
   -0.2190   19.5230   -7.6680 P   0  0  0  0  0  0  0  0  0  0  0  0
   -1.3070   20.2700   -8.4520 O   0  0  0  0  0  0  0  0  0  0  0  0
    0.7010   20.9240   -7.7550 O   0  0  0  0  0  0  0  0  0  0  0  0
   -0.0070   18.3940   -8.8280 O   0  0  0  0  0  0  0  0  0  0  0  0
  2  1  1  6
  2  3  1  0
  2  4  1  0
  4  5  1  1
  3  6  1  0
  4  7  1  0
  6  7  1  0
  7  8  1  6
  8  9  1  0
  9 10  1  0
  9 11  1  0
  9 12  1  0
 10 13  1  0
 13 14  1  0
 13 15  1  0
 13 16  1  0
M  CHG  2  11  -1  15  -1
M  END
>  <%Rank>  (507) 
38.625954

>  <N_hits>  (507) 
2

>  <submitter_name>  (507) 
nan

>  <original SMILES>  (507) 
nan

>  <∆G_unbound>  (507) 
0.683631

>  <∆G_bound>  (507) 
-7.180664

>  <regarded>  (507) 
5CMS_0_H_γ,5CMS_0_B_β

>  <ref_pdb>  (507) 
nan

>  <smiles>  (507) 
[O-][PH](O)(O)O[PH]([O-])(O)CC1OCC(O)C1O

>  <submitter_email>  (507) 
nan

>  <disregarded>  (507) 


>  <LE>  (507) 
-0.491518

>  <submitter_institution>  (507) 
nan

>  <ref_mols>  (507) 
5CMS_0_H,5CMS_0_B

>  <N_constrained_atoms>  (507) 
16.0

>  <ref_url>  (507) 
nan

>  <method>  (507) 
nan

>  <comRMSD>  (507) 
0.742095

>  <N_unconstrained_atoms>  (507) 
0.0

>  <∆∆G>  (507) 
-7.864295

>  <runtime>  (507) 
33.687073

>  <generation_date>  (507) 
nan

$$$$
mArh-mac-194_0_A_α-mArh-EU0034_0_A_α
     RDKit          3D

 17 19  0  0  0  0  0  0  0  0999 V2000
   -7.4580   14.3880    2.8550 N   0  0  0  0  0  0  0  0  0  0  0  0
   -6.8190   14.4580    1.6630 C   0  0  0  0  0  0  0  0  0  0  0  0
   -5.5690   14.1640    1.6090 N   0  0  0  0  0  0  0  0  0  0  0  0
   -7.5340   14.8440    0.5800 N   0  0  0  0  0  0  0  0  0  0  0  0
   -6.9580   14.9720   -0.6560 C   0  0  0  0  0  0  0  0  0  0  0  0
   -4.9180   14.2760    0.4120 C   0  0  0  0  0  0  0  0  0  0  0  0
   -7.6190   15.2690   -1.6380 O   0  0  0  0  0  0  0  0  0  0  0  0
   -5.4980   14.6900   -0.7220 C   0  0  0  0  0  0  0  0  0  0  0  0
   -3.4540   13.8920    0.4320 C   0  0  0  0  0  0  0  0  0  0  0  0
   -2.5850   14.5700   -0.6580 C   0  0  0  0  0  0  0  0  0  0  0  0
   -4.7400   14.8520   -1.9430 C   0  0  0  0  0  0  0  0  0  0  0  0
   -3.3930   14.8140   -1.9370 C   0  0  0  0  0  0  0  0  0  0  0  0
   -2.0700   15.8070    0.0760 C   0  0  0  0  0  0  0  0  0  0  0  0
   -1.3230   13.7500   -1.0530 C   0  0  0  0  0  0  0  0  0  0  0  0
   -0.1050   14.4580   -0.6630 N   0  0  0  0  0  0  0  0  0  0  0  0
   -1.2940   15.3380    1.2200 N   0  0  0  0  0  0  0  0  0  0  0  0
   -0.0610   14.7430    0.7610 C   0  0  0  0  0  0  0  0  0  0  0  0
  1  2  1  0
  2  3  2  0
  2  4  1  0
  4  5  1  0
  3  6  1  0
  5  7  2  0
  5  8  1  0
  6  8  2  0
  6  9  1  0
  9 10  1  0
  8 11  1  0
 10 12  1  0
 11 12  2  0
 10 13  1  0
 10 14  1  0
 14 15  1  0
 13 16  1  0
 15 17  1  0
 16 17  1  0
M  END
>  <%Rank>  (508) 
38.70229

>  <N_hits>  (508) 
2

>  <submitter_name>  (508) 
nan

>  <original SMILES>  (508) 
nan

>  <∆G_unbound>  (508) 
0.275576

>  <∆G_bound>  (508) 
-3.612258

>  <regarded>  (508) 
mArh-mac-194_0_A_α,mArh-EU0034_0_A_α

>  <ref_pdb>  (508) 
nan

>  <smiles>  (508) 
Nc1nc2c(c(=O)[nH]1)C=CC1(CNCNC1)C2

>  <submitter_email>  (508) 
nan

>  <disregarded>  (508) 


>  <LE>  (508) 
-0.228696

>  <submitter_institution>  (508) 
nan

>  <ref_mols>  (508) 
mArh-mac-194_0_A,mArh-EU0034_0_A

>  <N_constrained_atoms>  (508) 
17.0

>  <ref_url>  (508) 
nan

>  <method>  (508) 
nan

>  <comRMSD>  (508) 
0.63346

>  <N_unconstrained_atoms>  (508) 
0.0

>  <∆∆G>  (508) 
-3.887833

>  <runtime>  (508) 
28.78983

>  <generation_date>  (508) 
nan

$$$$
mArh-5cb5_G_0_G_β-mArh-6fx_7_0A_α
     RDKit          3D

 17 17  0  0  0  0  0  0  0  0999 V2000
   -1.9820   21.1420   -8.7990 O   0  0  0  0  0  0  0  0  0  0  0  0
   -0.7800   20.3670   -8.0010 P   0  0  2  0  0  0  0  0  0  0  0  0
   -1.2480   20.0460   -6.5370 O   0  0  0  0  0  0  0  0  0  0  0  0
   -2.7020   22.3280   -8.3430 C   0  0  1  0  0  0  0  0  0  0  0  0
    0.5670   21.0170   -7.9620 O   0  0  0  0  0  0  0  0  0  0  0  0
   -0.6580   18.8910   -8.6040 O   0  0  0  0  0  0  0  0  0  0  0  0
   -3.0140   23.2430   -9.3990 O   0  0  0  0  0  0  0  0  0  0  0  0
   -4.1280   22.0120   -7.8440 C   0  0  1  0  0  0  0  0  0  0  0  0
   -1.7610   18.6220   -6.0770 P   0  0  0  0  0  0  0  0  0  0  0  0
   -4.5140   22.7050   -6.6560 O   0  0  0  0  0  0  0  0  0  0  0  0
   -4.0520   22.5940  -10.1110 C   0  0  1  0  0  0  0  0  0  0  0  0
   -5.0590   22.3840   -9.0160 C   0  0  2  0  0  0  0  0  0  0  0  0
   -0.5050   17.7430   -5.6520 O   0  0  0  0  0  0  0  0  0  0  0  0
   -2.7570   17.9080   -6.9020 O   0  0  0  0  0  0  0  0  0  0  0  0
   -2.2850   19.1230   -4.6600 O   0  0  0  0  0  0  0  0  0  0  0  0
   -4.5820   23.4360  -11.1290 O   0  0  0  0  0  0  0  0  0  0  0  0
   -5.7390   23.6270   -8.7740 O   0  0  0  0  0  0  0  0  0  0  0  0
  1  2  1  0
  2  3  1  0
  4  1  1  6
  2  5  2  0
  2  6  1  6
  4  7  1  0
  4  8  1  0
  3  9  1  0
  8 10  1  1
  7 11  1  0
  8 12  1  0
 11 12  1  0
  9 13  1  0
  9 14  2  0
  9 15  1  0
 11 16  1  6
 12 17  1  1
M  END
>  <%Rank>  (509) 
38.778626

>  <N_hits>  (509) 
2

>  <submitter_name>  (509) 
nan

>  <original SMILES>  (509) 
nan

>  <∆G_unbound>  (509) 
1.974322

>  <∆G_bound>  (509) 
-7.29356

>  <regarded>  (509) 
mArh-5cb5_G_0_G_β,mArh-6fx_7_0A_α

>  <ref_pdb>  (509) 
nan

>  <smiles>  (509) 
O=P(O)(O)OP(=O)(O)OC1OC(O)C(O)C1O

>  <submitter_email>  (509) 
nan

>  <disregarded>  (509) 


>  <LE>  (509) 
-0.54517

>  <submitter_institution>  (509) 
nan

>  <ref_mols>  (509) 
mArh-5cb5_G_0_G,mArh-6fx_7_0A

>  <N_constrained_atoms>  (509) 
17.0

>  <ref_url>  (509) 
nan

>  <method>  (509) 
nan

>  <comRMSD>  (509) 
0.79185

>  <N_unconstrained_atoms>  (509) 
0.0

>  <∆∆G>  (509) 
-9.267882

>  <runtime>  (509) 
36.402921

>  <generation_date>  (509) 
nan

$$$$
5CB5_0_M_α-5DUS_0_A_γ
     RDKit          3D

 25 26  0  0  0  0  0  0  0  0999 V2000
   -1.8700   21.7850   -8.2520 C   0  0  0  0  0  0  0  0  0  0  0  0
   -3.2440   22.1300   -8.7910 C   0  0  2  0  0  0  0  0  0  0  0  0
   -3.7520   23.5190   -8.4380 C   0  0  1  0  0  0  0  0  0  0  0  0
   -4.1990   21.2060   -8.3310 O   0  0  0  0  0  0  0  0  0  0  0  0
   -4.4820   24.0750   -9.5330 O   0  0  0  0  0  0  0  0  0  0  0  0
   -4.6340   23.2850   -7.2020 C   0  0  2  0  0  0  0  0  0  0  0  0
   -5.0180   21.7940   -7.3250 C   0  0  2  0  0  0  0  0  0  0  0  0
   -5.8280   24.0870   -7.3060 O   0  0  0  0  0  0  0  0  0  0  0  0
   -4.9120   21.0650   -6.0910 O   0  0  0  0  0  0  0  0  0  0  0  0
   -6.5000   23.8570   -8.5560 C   0  0  2  0  0  0  0  0  0  0  0  0
   -3.5740   21.0750   -5.5550 C   0  0  0  0  0  0  0  0  0  0  0  0
   -7.6640   24.7940   -8.8430 C   0  0  0  0  0  0  0  0  0  0  0  0
   -6.9860   22.5430   -8.6720 O   0  0  0  0  0  0  0  0  0  0  0  0
   -2.6020   20.2600   -6.4430 C   0  0  0  0  0  0  0  0  0  0  0  0
   -2.0600   18.9170   -5.9080 C   0  0  0  0  0  0  0  0  0  0  0  0
   -0.5480   18.8690   -5.6370 C   0  0  0  0  0  0  0  0  0  0  0  0
    0.1810   17.6400   -6.1110 C   0  0  0  0  0  0  0  0  0  0  0  0
    0.8520   16.8250   -4.9940 C   0  0  0  0  0  0  0  0  0  0  0  0
   -0.0860   15.8270   -4.3200 C   0  0  2  0  0  0  0  0  0  0  0  0
    0.2150   15.5380   -2.9370 O   0  0  0  0  0  0  0  0  0  0  0  0
   -0.2640   14.4430   -4.9370 C   0  0  1  0  0  0  0  0  0  0  0  0
    0.9020   13.6130   -4.9160 O   0  0  0  0  0  0  0  0  0  0  0  0
   -0.5930   14.3770   -2.6240 C   0  0  0  0  0  0  0  0  0  0  0  0
   -1.2860   13.9670   -3.9290 C   0  0  2  0  0  0  0  0  0  0  0  0
   -1.5630   12.5820   -4.0650 O   0  0  0  0  0  0  0  0  0  0  0  0
  2  1  1  1
  2  3  1  0
  2  4  1  0
  3  5  1  6
  3  6  1  0
  4  7  1  0
  6  7  1  0
  6  8  1  6
  7  9  1  1
  8 10  1  0
  9 11  1  0
 10 12  1  1
 10 13  1  0
 11 14  1  0
 14 15  1  0
 15 16  1  0
 16 17  1  0
 17 18  1  0
 19 18  1  6
 19 20  1  0
 19 21  1  0
 21 22  1  1
 20 23  1  0
 21 24  1  0
 23 24  1  0
 24 25  1  1
M  END
>  <%Rank>  (510) 
38.854962

>  <N_hits>  (510) 
2

>  <submitter_name>  (510) 
nan

>  <original SMILES>  (510) 
nan

>  <∆G_unbound>  (510) 
1.998603

>  <∆G_bound>  (510) 
-7.754882

>  <regarded>  (510) 
5CB5_0_M_α,5DUS_0_A_γ

>  <ref_pdb>  (510) 
nan

>  <smiles>  (510) 
CC1OC(OCCCCCCC2OCC(O)C2O)C(O[C@H](C)O)C1O

>  <submitter_email>  (510) 
nan

>  <disregarded>  (510) 


>  <LE>  (510) 
-0.390139

>  <submitter_institution>  (510) 
nan

>  <ref_mols>  (510) 
5CB5_0_M,5DUS_0_A

>  <N_constrained_atoms>  (510) 
20.0

>  <ref_url>  (510) 
nan

>  <method>  (510) 
nan

>  <comRMSD>  (510) 
0.650148

>  <N_unconstrained_atoms>  (510) 
5.0

>  <∆∆G>  (510) 
-9.753484

>  <runtime>  (510) 
29.461322

>  <generation_date>  (510) 
nan

$$$$
1HJZ_0_B_α-5CMS_0_N_β
     RDKit          3D

 17 17  0  0  0  0  0  0  0  0999 V2000
    1.1460   21.2850   -7.4020 O   0  0  0  0  0  0  0  0  0  0  0  0
   -0.1070   20.3890   -7.6450 S   0  0  1  0  0  0  0  0  0  0  0  0
    0.4120   19.1590   -8.5770 O   0  0  0  0  0  0  0  0  0  0  0  0
   -0.7840   19.8060   -6.2220 O   0  0  0  0  0  0  0  0  0  0  0  0
   -1.4370   21.2110   -8.3030 C   0  0  0  0  0  0  0  0  0  0  0  0
   -2.1950   22.0330   -7.3530 C   0  0  0  0  0  0  0  0  0  0  0  0
   -0.4250   18.2540   -8.7610 O   0  0  0  0  0  0  0  0  0  0  0  0
   -1.0660   18.2220   -5.8900 P   0  0  0  0  0  0  0  0  0  0  0  0
   -0.0960   17.0700   -6.3390 O   0  0  0  0  0  0  0  0  0  0  0  0
   -2.1950   18.0900   -6.9450 O   0  0  0  0  0  0  0  0  0  0  0  0
   -2.2870   17.7670   -4.7890 O   0  0  0  0  0  0  0  0  0  0  0  0
   -3.4000   22.6130   -7.6840 N   0  0  0  0  0  0  0  0  0  0  0  0
   -3.6750   22.8330   -9.0440 C   0  0  0  0  0  0  0  0  0  0  0  0
   -3.8300   23.6400   -6.8100 C   0  0  0  0  0  0  0  0  0  0  0  0
   -5.1760   23.1010   -9.1780 C   0  0  0  0  0  0  0  0  0  0  0  0
   -5.3120   23.8650   -7.0340 C   0  0  0  0  0  0  0  0  0  0  0  0
   -5.5460   24.1550   -8.3720 O   0  0  0  0  0  0  0  0  0  0  0  0
  2  1  1  1
  2  3  1  0
  2  4  1  0
  2  5  1  0
  5  6  1  0
  3  7  1  0
  4  8  1  0
  8  9  1  0
  8 10  1  0
  8 11  1  0
  6 12  1  0
 12 13  1  0
 12 14  1  0
 13 15  1  0
 14 16  1  0
 15 17  1  0
 16 17  1  0
M  CHG  1  10  -1
M  END
>  <%Rank>  (511) 
38.931298

>  <N_hits>  (511) 
2

>  <submitter_name>  (511) 
nan

>  <original SMILES>  (511) 
nan

>  <∆G_unbound>  (511) 
1.301668

>  <∆G_bound>  (511) 
-5.625064

>  <regarded>  (511) 
1HJZ_0_B_α,5CMS_0_N_β

>  <ref_pdb>  (511) 
nan

>  <smiles>  (511) 
[O-][PH](O)(O)OS(O)(CCN1CCOCC1)OO

>  <submitter_email>  (511) 
nan

>  <disregarded>  (511) 


>  <LE>  (511) 
-0.407455

>  <submitter_institution>  (511) 
nan

>  <ref_mols>  (511) 
1HJZ_0_B,5CMS_0_N

>  <N_constrained_atoms>  (511) 
17.0

>  <ref_url>  (511) 
nan

>  <method>  (511) 
nan

>  <comRMSD>  (511) 
0.723653

>  <N_unconstrained_atoms>  (511) 
0.0

>  <∆∆G>  (511) 
-6.926732

>  <runtime>  (511) 
27.155099

>  <generation_date>  (511) 
nan

$$$$
mArh-5cb5_C_0_C_γ-5CB5_0_I_β
     RDKit          3D

 16 16  0  0  0  0  0  0  0  0999 V2000
   -0.5360   12.6030   -3.7500 O   0  0  0  0  0  0  0  0  0  0  0  0
   -0.8800   13.9440   -3.8610 C   0  0  1  0  0  0  0  0  0  0  0  0
   -0.3080   14.8120   -2.7470 C   0  0  0  0  0  0  0  0  0  0  0  0
   -0.2860   14.5890   -5.0750 C   0  0  2  0  0  0  0  0  0  0  0  0
    1.0550   14.2050   -5.1380 O   0  0  0  0  0  0  0  0  0  0  0  0
    0.1280   15.9950   -3.3850 O   0  0  0  0  0  0  0  0  0  0  0  0
   -0.5020   15.9790   -4.6100 C   0  0  1  0  0  0  0  0  0  0  0  0
   -0.1610   17.1890   -5.4940 C   0  0  0  0  0  0  0  0  0  0  0  0
   -1.6050   18.1310   -5.8000 P   0  0  0  0  0  0  0  0  0  0  0  0
   -1.1220   19.4150   -6.4760 O   0  0  0  0  0  0  0  0  0  0  0  0
   -2.5490   17.9160   -7.1800 O   0  0  0  0  0  0  0  0  0  0  0  0
   -2.1910   19.0720   -4.6670 O   0  0  0  0  0  0  0  0  0  0  0  0
   -0.0520   19.5980   -7.6240 P   0  0  0  0  0  0  0  0  0  0  0  0
   -0.9620   20.5650   -8.3820 O   0  0  0  0  0  0  0  0  0  0  0  0
    1.1100   20.8120   -7.5570 O   0  0  0  0  0  0  0  0  0  0  0  0
    0.0220   18.5060   -8.8420 O   0  0  0  0  0  0  0  0  0  0  0  0
  2  1  1  1
  2  3  1  0
  2  4  1  0
  4  5  1  1
  3  6  1  0
  4  7  1  0
  6  7  1  0
  7  8  1  6
  8  9  1  0
  9 10  1  0
  9 11  1  0
  9 12  1  0
 10 13  1  0
 13 14  1  0
 13 15  1  0
 13 16  1  0
M  CHG  2  11  -1  15  -1
M  END
>  <%Rank>  (512) 
39.007634

>  <N_hits>  (512) 
2

>  <submitter_name>  (512) 
nan

>  <original SMILES>  (512) 
nan

>  <∆G_unbound>  (512) 
0.683631

>  <∆G_bound>  (512) 
-7.227501

>  <regarded>  (512) 
mArh-5cb5_C_0_C_γ,5CB5_0_I_β

>  <ref_pdb>  (512) 
nan

>  <smiles>  (512) 
[O-][PH](O)(O)O[PH]([O-])(O)CC1OCC(O)C1O

>  <submitter_email>  (512) 
nan

>  <disregarded>  (512) 


>  <LE>  (512) 
-0.494446

>  <submitter_institution>  (512) 
nan

>  <ref_mols>  (512) 
mArh-5cb5_C_0_C,5CB5_0_I

>  <N_constrained_atoms>  (512) 
16.0

>  <ref_url>  (512) 
nan

>  <method>  (512) 
nan

>  <comRMSD>  (512) 
0.745273

>  <N_unconstrained_atoms>  (512) 
0.0

>  <∆∆G>  (512) 
-7.911133

>  <runtime>  (512) 
29.116806

>  <generation_date>  (512) 
nan

$$$$
5CB5_0_R_γ-5CB5_0_N_β
     RDKit          3D

 16 16  0  0  0  0  0  0  0  0999 V2000
   -0.7070   12.5760   -3.9540 O   0  0  0  0  0  0  0  0  0  0  0  0
   -0.9130   13.9490   -3.9740 C   0  0  1  0  0  0  0  0  0  0  0  0
   -0.3410   14.6840   -2.7670 C   0  0  0  0  0  0  0  0  0  0  0  0
   -0.1610   14.6250   -5.0680 C   0  0  2  0  0  0  0  0  0  0  0  0
    1.1790   14.2420   -4.9510 O   0  0  0  0  0  0  0  0  0  0  0  0
    0.0890   15.9300   -3.2880 O   0  0  0  0  0  0  0  0  0  0  0  0
   -0.4660   15.9820   -4.5550 C   0  0  1  0  0  0  0  0  0  0  0  0
   -0.1190   17.2430   -5.3650 C   0  0  0  0  0  0  0  0  0  0  0  0
   -1.5290   18.2410   -5.7590 P   0  0  0  0  0  0  0  0  0  0  0  0
   -0.8780   19.4990   -6.3300 O   0  0  0  0  0  0  0  0  0  0  0  0
   -2.3520   18.1360   -7.2390 O   0  0  0  0  0  0  0  0  0  0  0  0
   -2.2120   19.2020   -4.6860 O   0  0  0  0  0  0  0  0  0  0  0  0
   -0.1780   19.7330   -7.7380 P   0  0  0  0  0  0  0  0  0  0  0  0
   -1.4200   20.3880   -8.3680 O   0  0  0  0  0  0  0  0  0  0  0  0
    0.6480   21.1560   -8.0470 O   0  0  0  0  0  0  0  0  0  0  0  0
   -0.1070   18.5080   -8.8250 O   0  0  0  0  0  0  0  0  0  0  0  0
  2  1  1  1
  2  3  1  0
  2  4  1  0
  4  5  1  1
  3  6  1  0
  4  7  1  0
  6  7  1  0
  7  8  1  6
  8  9  1  0
  9 10  1  0
  9 11  1  0
  9 12  1  0
 10 13  1  0
 13 14  1  0
 13 15  1  0
 13 16  1  0
M  CHG  2  11  -1  15  -1
M  END
>  <%Rank>  (513) 
39.083969

>  <N_hits>  (513) 
2

>  <submitter_name>  (513) 
nan

>  <original SMILES>  (513) 
nan

>  <∆G_unbound>  (513) 
0.683631

>  <∆G_bound>  (513) 
-7.204642

>  <regarded>  (513) 
5CB5_0_R_γ,5CB5_0_N_β

>  <ref_pdb>  (513) 
nan

>  <smiles>  (513) 
[O-][PH](O)(O)O[PH]([O-])(O)CC1OCC(O)C1O

>  <submitter_email>  (513) 
nan

>  <disregarded>  (513) 


>  <LE>  (513) 
-0.493017

>  <submitter_institution>  (513) 
nan

>  <ref_mols>  (513) 
5CB5_0_R,5CB5_0_N

>  <N_constrained_atoms>  (513) 
16.0

>  <ref_url>  (513) 
nan

>  <method>  (513) 
nan

>  <comRMSD>  (513) 
0.744658

>  <N_unconstrained_atoms>  (513) 
0.0

>  <∆∆G>  (513) 
-7.888273

>  <runtime>  (513) 
35.375274

>  <generation_date>  (513) 
nan

$$$$
5CMS_0_G_β-mArh-5l9k_B_0_B_β
     RDKit          3D

 18 18  0  0  0  0  0  0  0  0999 V2000
   -1.5970   12.9130   -4.3780 O   0  0  0  0  0  0  0  0  0  0  0  0
   -1.1490   14.2690   -4.1950 C   0  0  1  0  0  0  0  0  0  0  0  0
   -0.7580   14.4930   -2.7450 C   0  0  0  0  0  0  0  0  0  0  0  0
    0.1740   14.5070   -4.9250 C   0  0  2  0  0  0  0  0  0  0  0  0
    0.9480   13.3170   -5.0140 O   0  0  0  0  0  0  0  0  0  0  0  0
    0.4200   15.3270   -2.7170 O   0  0  0  0  0  0  0  0  0  0  0  0
    0.8180   15.6110   -4.0740 C   0  0  2  0  0  0  0  0  0  0  0  0
    0.5120   17.0780   -4.3630 C   0  0  0  0  0  0  0  0  0  0  0  0
    0.7290   17.5360   -5.7760 C   0  0  0  0  0  0  0  0  0  0  0  0
   -0.5190   17.3660   -6.4060 O   0  0  0  0  0  0  0  0  0  0  0  0
   -1.7860   18.1800   -5.9340 P   0  0  2  0  0  0  0  0  0  0  0  0
   -1.5360   19.6260   -6.4800 O   0  0  0  0  0  0  0  0  0  0  0  0
   -2.2050   18.0010   -4.5460 O   0  0  0  0  0  0  0  0  0  0  0  0
   -2.9030   17.6120   -6.8850 O   0  0  0  0  0  0  0  0  0  0  0  0
   -0.7980   19.8230   -7.8560 P   0  0  0  0  0  0  0  0  0  0  0  0
   -1.8490   20.7590   -8.5930 O   0  0  0  0  0  0  0  0  0  0  0  0
   -0.4150   18.6120   -8.6520 O   0  0  0  0  0  0  0  0  0  0  0  0
    0.3860   20.8570   -7.6180 O   0  0  0  0  0  0  0  0  0  0  0  0
  2  1  1  1
  2  3  1  0
  2  4  1  0
  4  5  1  1
  3  6  1  0
  4  7  1  0
  6  7  1  0
  7  8  1  6
  8  9  1  0
  9 10  1  0
 10 11  1  0
 11 12  1  0
 11 13  2  0
 11 14  1  6
 12 15  1  0
 15 16  1  0
 15 17  2  0
 15 18  1  0
M  END
>  <%Rank>  (514) 
39.160305

>  <N_hits>  (514) 
2

>  <submitter_name>  (514) 
nan

>  <original SMILES>  (514) 
nan

>  <∆G_unbound>  (514) 
1.594509

>  <∆G_bound>  (514) 
-9.64537

>  <regarded>  (514) 
5CMS_0_G_β,mArh-5l9k_B_0_B_β

>  <ref_pdb>  (514) 
nan

>  <smiles>  (514) 
O=P(O)(O)OP(=O)(O)OCCC1OCC(O)C1O

>  <submitter_email>  (514) 
nan

>  <disregarded>  (514) 


>  <LE>  (514) 
-0.624438

>  <submitter_institution>  (514) 
nan

>  <ref_mols>  (514) 
5CMS_0_G,mArh-5l9k_B_0_B

>  <N_constrained_atoms>  (514) 
17.0

>  <ref_url>  (514) 
nan

>  <method>  (514) 
nan

>  <comRMSD>  (514) 
0.804177

>  <N_unconstrained_atoms>  (514) 
1.0

>  <∆∆G>  (514) 
-11.239878

>  <runtime>  (514) 
34.002527

>  <generation_date>  (514) 
nan

$$$$
mArh-5cb5_P_0_P_γ-5CB5_0_N_β
     RDKit          3D

 16 16  0  0  0  0  0  0  0  0999 V2000
   -1.5070   12.7630   -3.9600 O   0  0  0  0  0  0  0  0  0  0  0  0
   -0.4410   13.6460   -3.8490 C   0  0  2  0  0  0  0  0  0  0  0  0
   -0.6570   14.6990   -2.7780 C   0  0  0  0  0  0  0  0  0  0  0  0
   -0.2110   14.4540   -5.1080 C   0  0  2  0  0  0  0  0  0  0  0  0
    1.1560   14.3500   -5.3690 O   0  0  0  0  0  0  0  0  0  0  0  0
   -0.1390   15.8620   -3.3600 O   0  0  0  0  0  0  0  0  0  0  0  0
   -0.6340   15.8120   -4.6440 C   0  0  1  0  0  0  0  0  0  0  0  0
   -0.2370   17.0780   -5.4360 C   0  0  0  0  0  0  0  0  0  0  0  0
   -1.5740   18.1800   -5.7870 P   0  0  0  0  0  0  0  0  0  0  0  0
   -0.8230   19.4160   -6.2980 O   0  0  0  0  0  0  0  0  0  0  0  0
   -2.3680   18.1950   -7.2790 O   0  0  0  0  0  0  0  0  0  0  0  0
   -2.1990   19.1430   -4.6790 O   0  0  0  0  0  0  0  0  0  0  0  0
   -0.1740   19.7060   -7.7220 P   0  0  0  0  0  0  0  0  0  0  0  0
   -1.4440   20.3360   -8.3190 O   0  0  0  0  0  0  0  0  0  0  0  0
    0.6030   21.1590   -8.0330 O   0  0  0  0  0  0  0  0  0  0  0  0
   -0.0860   18.5000   -8.8280 O   0  0  0  0  0  0  0  0  0  0  0  0
  2  1  1  6
  2  3  1  0
  2  4  1  0
  4  5  1  1
  3  6  1  0
  4  7  1  0
  6  7  1  0
  7  8  1  6
  8  9  1  0
  9 10  1  0
  9 11  1  0
  9 12  1  0
 10 13  1  0
 13 14  1  0
 13 15  1  0
 13 16  1  0
M  CHG  2  11  -1  15  -1
M  END
>  <%Rank>  (515) 
39.236641

>  <N_hits>  (515) 
2

>  <submitter_name>  (515) 
nan

>  <original SMILES>  (515) 
nan

>  <∆G_unbound>  (515) 
0.683631

>  <∆G_bound>  (515) 
-7.041087

>  <regarded>  (515) 
mArh-5cb5_P_0_P_γ,5CB5_0_N_β

>  <ref_pdb>  (515) 
nan

>  <smiles>  (515) 
[O-][PH](O)(O)O[PH]([O-])(O)CC1OCC(O)C1O

>  <submitter_email>  (515) 
nan

>  <disregarded>  (515) 


>  <LE>  (515) 
-0.482795

>  <submitter_institution>  (515) 
nan

>  <ref_mols>  (515) 
mArh-5cb5_P_0_P,5CB5_0_N

>  <N_constrained_atoms>  (515) 
16.0

>  <ref_url>  (515) 
nan

>  <method>  (515) 
nan

>  <comRMSD>  (515) 
0.742241

>  <N_unconstrained_atoms>  (515) 
0.0

>  <∆∆G>  (515) 
-7.724719

>  <runtime>  (515) 
31.901134

>  <generation_date>  (515) 
nan

$$$$
4IQY_0_A_α-5CB5_0_F_β
     RDKit          3D

 17 17  0  0  0  0  0  0  0  0999 V2000
   -2.1520   21.1890   -7.4250 C   0  0  0  0  0  0  0  0  0  0  0  0
   -0.7660   20.2800   -8.0420 P   0  0  0  0  0  0  0  0  0  0  0  0
   -0.4050   19.4530   -6.7920 O   0  0  0  0  0  0  0  0  0  0  0  0
   -3.2920   21.6330   -8.3690 C   0  0  1  0  0  0  0  0  0  0  0  0
   -0.7490   18.8440   -8.7640 O   0  0  0  0  0  0  0  0  0  0  0  0
    0.7430   21.0470   -7.8270 O   0  0  0  0  0  0  0  0  0  0  0  0
   -4.4340   20.8890   -8.1150 O   0  0  0  0  0  0  0  0  0  0  0  0
   -3.7860   23.0960   -8.1620 C   0  0  1  0  0  0  0  0  0  0  0  0
   -4.1030   23.7080   -9.3670 O   0  0  0  0  0  0  0  0  0  0  0  0
   -1.4270   18.6230   -5.7810 P   0  0  0  0  0  0  0  0  0  0  0  0
   -5.1030   21.5270   -7.1100 C   0  0  1  0  0  0  0  0  0  0  0  0
   -5.1600   22.9470   -7.5160 C   0  0  1  0  0  0  0  0  0  0  0  0
   -6.3930   21.0800   -6.9530 O   0  0  0  0  0  0  0  0  0  0  0  0
   -5.2610   23.8510   -6.4270 O   0  0  0  0  0  0  0  0  0  0  0  0
   -1.2120   16.9860   -5.4490 O   0  0  0  0  0  0  0  0  0  0  0  0
   -2.4150   18.2210   -6.8850 O   0  0  0  0  0  0  0  0  0  0  0  0
   -2.4300   19.4630   -4.8770 O   0  0  0  0  0  0  0  0  0  0  0  0
  1  2  1  0
  2  3  1  0
  4  1  1  1
  2  5  1  0
  2  6  1  0
  4  7  1  0
  4  8  1  0
  8  9  1  6
  3 10  1  0
  7 11  1  0
  8 12  1  0
 11 12  1  0
 11 13  1  6
 12 14  1  1
 10 15  1  0
 10 16  1  0
 10 17  1  0
M  CHG  2   5  -1  16  -1
M  END
>  <%Rank>  (516) 
39.312977

>  <N_hits>  (516) 
2

>  <submitter_name>  (516) 
nan

>  <original SMILES>  (516) 
nan

>  <∆G_unbound>  (516) 
1.818629

>  <∆G_bound>  (516) 
-9.151177

>  <regarded>  (516) 
4IQY_0_A_α,5CB5_0_F_β

>  <ref_pdb>  (516) 
nan

>  <smiles>  (516) 
[O-][PH](O)(O)O[PH]([O-])(O)CC1OC(O)C(O)C1O

>  <submitter_email>  (516) 
nan

>  <disregarded>  (516) 


>  <LE>  (516) 
-0.645283

>  <submitter_institution>  (516) 
nan

>  <ref_mols>  (516) 
4IQY_0_A,5CB5_0_F

>  <N_constrained_atoms>  (516) 
17.0

>  <ref_url>  (516) 
nan

>  <method>  (516) 
nan

>  <comRMSD>  (516) 
0.84635

>  <N_unconstrained_atoms>  (516) 
0.0

>  <∆∆G>  (516) 
-10.969806

>  <runtime>  (516) 
28.268355

>  <generation_date>  (516) 
nan

$$$$
5DUS_0_A_γ-5CB3_0_A_β
     RDKit          3D

 16 16  0  0  0  0  0  0  0  0999 V2000
   -1.9930   13.1740   -4.0040 O   0  0  0  0  0  0  0  0  0  0  0  0
   -0.6670   13.5810   -3.8940 C   0  0  2  0  0  0  0  0  0  0  0  0
   -0.4180   14.5210   -2.7140 C   0  0  0  0  0  0  0  0  0  0  0  0
   -0.2380   14.3920   -5.0840 C   0  0  2  0  0  0  0  0  0  0  0  0
    1.0890   14.0440   -5.3320 O   0  0  0  0  0  0  0  0  0  0  0  0
    0.2220   15.6390   -3.2860 O   0  0  0  0  0  0  0  0  0  0  0  0
   -0.4210   15.7450   -4.5040 C   0  0  1  0  0  0  0  0  0  0  0  0
   -0.0790   17.0060   -5.3240 C   0  0  0  0  0  0  0  0  0  0  0  0
   -1.5250   17.9620   -5.6650 P   0  0  0  0  0  0  0  0  0  0  0  0
   -1.0250   19.2560   -6.3330 O   0  0  0  0  0  0  0  0  0  0  0  0
   -2.5140   17.7290   -7.0260 O   0  0  0  0  0  0  0  0  0  0  0  0
   -2.0940   18.9410   -4.5540 O   0  0  0  0  0  0  0  0  0  0  0  0
   -0.1610   19.5480   -7.6390 P   0  0  0  0  0  0  0  0  0  0  0  0
   -1.3280   20.2500   -8.3460 O   0  0  0  0  0  0  0  0  0  0  0  0
    0.6990   20.9810   -7.7760 O   0  0  0  0  0  0  0  0  0  0  0  0
    0.0160   18.4220   -8.8130 O   0  0  0  0  0  0  0  0  0  0  0  0
  2  1  1  6
  2  3  1  0
  2  4  1  0
  4  5  1  1
  3  6  1  0
  4  7  1  0
  6  7  1  0
  7  8  1  6
  8  9  1  0
  9 10  1  0
  9 11  1  0
  9 12  1  0
 10 13  1  0
 13 14  1  0
 13 15  1  0
 13 16  1  0
M  CHG  2  11  -1  15  -1
M  END
>  <%Rank>  (517) 
39.389313

>  <N_hits>  (517) 
2

>  <submitter_name>  (517) 
nan

>  <original SMILES>  (517) 
nan

>  <∆G_unbound>  (517) 
0.683631

>  <∆G_bound>  (517) 
-7.403446

>  <regarded>  (517) 
5DUS_0_A_γ,5CB3_0_A_β

>  <ref_pdb>  (517) 
nan

>  <smiles>  (517) 
[O-][PH](O)(O)O[PH]([O-])(O)CC1OCC(O)C1O

>  <submitter_email>  (517) 
nan

>  <disregarded>  (517) 


>  <LE>  (517) 
-0.505442

>  <submitter_institution>  (517) 
nan

>  <ref_mols>  (517) 
5DUS_0_A,5CB3_0_A

>  <N_constrained_atoms>  (517) 
16.0

>  <ref_url>  (517) 
nan

>  <method>  (517) 
nan

>  <comRMSD>  (517) 
0.754894

>  <N_unconstrained_atoms>  (517) 
0.0

>  <∆∆G>  (517) 
-8.087077

>  <runtime>  (517) 
34.460678

>  <generation_date>  (517) 
nan

$$$$
mArh-x0905_0_A_α-mArh-x0962_0_A_α
     RDKit          3D

  8  8  0  0  0  0  0  0  0  0999 V2000
   -7.1070   15.0500   -0.6870 O   0  0  0  0  0  0  0  0  0  0  0  0
   -5.7620   15.0430   -0.5330 C   0  0  0  0  0  0  0  0  0  0  0  0
   -5.3690   14.9990    0.7470 N   0  0  0  0  0  0  0  0  0  0  0  0
   -4.9270   15.0760   -1.6280 C   0  0  0  0  0  0  0  0  0  0  0  0
   -4.0380   14.9970    0.9490 C   0  0  0  0  0  0  0  0  0  0  0  0
   -3.5590   15.0610   -1.3930 C   0  0  0  0  0  0  0  0  0  0  0  0
   -3.1070   15.0240   -0.0740 C   0  0  0  0  0  0  0  0  0  0  0  0
   -2.6530   15.0760   -2.4590 N   0  0  0  0  0  0  0  0  0  0  0  0
  1  2  1  0
  2  3  2  0
  2  4  1  0
  3  5  1  0
  4  6  2  0
  5  7  2  0
  6  7  1  0
  6  8  1  0
M  END
>  <%Rank>  (518) 
39.465649

>  <N_hits>  (518) 
2

>  <submitter_name>  (518) 
nan

>  <original SMILES>  (518) 
nan

>  <∆G_unbound>  (518) 
0.041881

>  <∆G_bound>  (518) 
-2.301571

>  <regarded>  (518) 
mArh-x0905_0_A_α,mArh-x0962_0_A_α

>  <ref_pdb>  (518) 
nan

>  <smiles>  (518) 
Nc1ccnc(O)c1

>  <submitter_email>  (518) 
nan

>  <disregarded>  (518) 


>  <LE>  (518) 
-0.292931

>  <submitter_institution>  (518) 
nan

>  <ref_mols>  (518) 
mArh-x0905_0_A,mArh-x0962_0_A

>  <N_constrained_atoms>  (518) 
8.0

>  <ref_url>  (518) 
nan

>  <method>  (518) 
nan

>  <comRMSD>  (518) 
0.410599

>  <N_unconstrained_atoms>  (518) 
0.0

>  <∆∆G>  (518) 
-2.343452

>  <runtime>  (518) 
24.439532

>  <generation_date>  (518) 
nan

$$$$
mArh-6woj_B_0_B_α-mArh-4iqy_B_0_B_γ
     RDKit          3D

 22 23  0  0  0  0  0  0  0  0999 V2000
   -1.5970   21.9570   -8.1400 C   0  0  0  0  0  0  0  0  0  0  0  0
   -2.9250   22.2870   -7.5230 C   0  0  2  0  0  0  0  0  0  0  0  0
   -4.0290   21.5930   -8.0930 O   0  0  0  0  0  0  0  0  0  0  0  0
   -3.4930   23.6770   -7.5690 C   0  0  1  0  0  0  0  0  0  0  0  0
   -4.1570   24.0060   -8.8110 O   0  0  0  0  0  0  0  0  0  0  0  0
   -4.9830   21.9080   -7.0820 C   0  0  2  0  0  0  0  0  0  0  0  0
   -4.5290   23.2960   -6.5350 C   0  0  2  0  0  0  0  0  0  0  0  0
   -4.7830   20.9230   -6.0890 O   0  0  0  0  0  0  0  0  0  0  0  0
   -5.5700   24.2560   -6.3960 O   0  0  0  0  0  0  0  0  0  0  0  0
   -3.5980   20.1920   -6.4960 C   0  0  0  0  0  0  0  0  0  0  0  0
   -2.4330   20.1790   -5.4990 C   0  0  0  0  0  0  0  0  0  0  0  0
   -1.7960   18.7870   -5.3670 C   0  0  0  0  0  0  0  0  0  0  0  0
   -0.4760   18.6490   -6.1260 C   0  0  0  0  0  0  0  0  0  0  0  0
    0.6070   17.9830   -5.2660 C   0  0  0  0  0  0  0  0  0  0  0  0
    0.5570   16.4560   -5.3590 C   0  0  0  0  0  0  0  0  0  0  0  0
    0.8850   15.6930   -4.0690 C   0  0  1  0  0  0  0  0  0  0  0  0
   -0.1520   15.9450   -3.0940 O   0  0  0  0  0  0  0  0  0  0  0  0
    0.9010   14.1660   -4.1620 C   0  0  2  0  0  0  0  0  0  0  0  0
    1.4890   13.5580   -5.2880 O   0  0  0  0  0  0  0  0  0  0  0  0
   -0.8900   14.7310   -2.8690 C   0  0  0  0  0  0  0  0  0  0  0  0
   -0.5700   13.8560   -4.0540 C   0  0  2  0  0  0  0  0  0  0  0  0
   -0.7640   12.4700   -3.8610 O   0  0  0  0  0  0  0  0  0  0  0  0
  2  1  1  6
  2  3  1  0
  2  4  1  0
  4  5  1  6
  3  6  1  0
  4  7  1  0
  6  7  1  0
  6  8  1  1
  7  9  1  6
  8 10  1  0
 10 11  1  0
 11 12  1  0
 12 13  1  0
 13 14  1  0
 14 15  1  0
 16 15  1  6
 16 17  1  0
 16 18  1  0
 18 19  1  6
 17 20  1  0
 18 21  1  0
 20 21  1  0
 21 22  1  1
M  END
>  <%Rank>  (519) 
39.541985

>  <N_hits>  (519) 
2

>  <submitter_name>  (519) 
nan

>  <original SMILES>  (519) 
nan

>  <∆G_unbound>  (519) 
0.187336

>  <∆G_bound>  (519) 
-11.203814

>  <regarded>  (519) 
mArh-6woj_B_0_B_α,mArh-4iqy_B_0_B_γ

>  <ref_pdb>  (519) 
nan

>  <smiles>  (519) 
CC1OC(OCCCCCCC2OCC(O)C2O)C(O)C1O

>  <submitter_email>  (519) 
nan

>  <disregarded>  (519) 


>  <LE>  (519) 
-0.51778

>  <submitter_institution>  (519) 
nan

>  <ref_mols>  (519) 
mArh-6woj_B_0_B,mArh-4iqy_B_0_B

>  <N_constrained_atoms>  (519) 
17.0

>  <ref_url>  (519) 
nan

>  <method>  (519) 
nan

>  <comRMSD>  (519) 
0.636641

>  <N_unconstrained_atoms>  (519) 
5.0

>  <∆∆G>  (519) 
-11.39115

>  <runtime>  (519) 
36.847664

>  <generation_date>  (519) 
nan

$$$$
mArh-6woj_D_0_D_α-mArh-5cms_F_6_F_γ
     RDKit          3D

 22 23  0  0  0  0  0  0  0  0999 V2000
   -1.6260   21.9760   -8.0800 C   0  0  0  0  0  0  0  0  0  0  0  0
   -2.9670   22.3910   -7.5090 C   0  0  2  0  0  0  0  0  0  0  0  0
   -4.0040   21.5200   -7.9400 O   0  0  0  0  0  0  0  0  0  0  0  0
   -3.5220   23.7590   -7.8490 C   0  0  1  0  0  0  0  0  0  0  0  0
   -3.7850   24.0000   -9.2230 O   0  0  0  0  0  0  0  0  0  0  0  0
   -5.1310   22.1280   -7.3100 C   0  0  2  0  0  0  0  0  0  0  0  0
   -4.9200   23.6380   -7.3120 C   0  0  1  0  0  0  0  0  0  0  0  0
   -5.1440   21.8610   -5.9470 O   0  0  0  0  0  0  0  0  0  0  0  0
   -5.1020   24.2170   -6.0300 O   0  0  0  0  0  0  0  0  0  0  0  0
   -4.2610   20.8350   -5.6040 C   0  0  0  0  0  0  0  0  0  0  0  0
   -2.7380   20.8270   -5.7360 C   0  0  0  0  0  0  0  0  0  0  0  0
   -2.1800   19.5030   -6.3370 C   0  0  0  0  0  0  0  0  0  0  0  0
   -1.6660   18.5030   -5.2740 C   0  0  0  0  0  0  0  0  0  0  0  0
   -0.7930   17.3660   -5.8130 C   0  0  0  0  0  0  0  0  0  0  0  0
    0.5490   17.1660   -5.1000 C   0  0  0  0  0  0  0  0  0  0  0  0
    0.7990   15.7910   -4.4130 C   0  0  1  0  0  0  0  0  0  0  0  0
    0.1470   15.8030   -3.1170 O   0  0  0  0  0  0  0  0  0  0  0  0
    0.3310   14.4890   -5.0990 C   0  0  1  0  0  0  0  0  0  0  0  0
    1.2640   13.4250   -5.1150 O   0  0  0  0  0  0  0  0  0  0  0  0
   -0.5600   14.5720   -2.9390 C   0  0  0  0  0  0  0  0  0  0  0  0
   -0.9090   14.0820   -4.3240 C   0  0  2  0  0  0  0  0  0  0  0  0
   -1.1020   12.6750   -4.4050 O   0  0  0  0  0  0  0  0  0  0  0  0
  2  1  1  6
  2  3  1  0
  2  4  1  0
  4  5  1  6
  3  6  1  0
  4  7  1  0
  6  7  1  0
  6  8  1  1
  7  9  1  1
  8 10  1  0
 10 11  1  0
 11 12  1  0
 12 13  1  0
 13 14  1  0
 14 15  1  0
 16 15  1  6
 16 17  1  0
 16 18  1  0
 18 19  1  1
 17 20  1  0
 18 21  1  0
 20 21  1  0
 21 22  1  1
M  END
>  <%Rank>  (520) 
39.618321

>  <N_hits>  (520) 
2

>  <submitter_name>  (520) 
nan

>  <original SMILES>  (520) 
nan

>  <∆G_unbound>  (520) 
0.187336

>  <∆G_bound>  (520) 
-8.95092

>  <regarded>  (520) 
mArh-6woj_D_0_D_α,mArh-5cms_F_6_F_γ

>  <ref_pdb>  (520) 
nan

>  <smiles>  (520) 
CC1OC(OCCCCCCC2OCC(O)C2O)C(O)C1O

>  <submitter_email>  (520) 
nan

>  <disregarded>  (520) 


>  <LE>  (520) 
-0.415375

>  <submitter_institution>  (520) 
nan

>  <ref_mols>  (520) 
mArh-6woj_D_0_D,mArh-5cms_F_6_F

>  <N_constrained_atoms>  (520) 
17.0

>  <ref_url>  (520) 
nan

>  <method>  (520) 
nan

>  <comRMSD>  (520) 
0.585585

>  <N_unconstrained_atoms>  (520) 
5.0

>  <∆∆G>  (520) 
-9.138255

>  <runtime>  (520) 
34.786203

>  <generation_date>  (520) 
nan

$$$$
mArh-5cms_J_9_J_γ-mArh-5cb5_M_1_M_β
     RDKit          3D

 16 16  0  0  0  0  0  0  0  0999 V2000
   -2.0960   12.7600   -4.3660 O   0  0  0  0  0  0  0  0  0  0  0  0
   -0.8520   13.3580   -4.0390 C   0  0  2  0  0  0  0  0  0  0  0  0
   -0.9030   14.3310   -2.8510 C   0  0  0  0  0  0  0  0  0  0  0  0
   -0.3020   14.2150   -5.1700 C   0  0  2  0  0  0  0  0  0  0  0  0
    1.1190   14.0040   -5.1320 O   0  0  0  0  0  0  0  0  0  0  0  0
   -0.3990   15.5940   -3.3180 O   0  0  0  0  0  0  0  0  0  0  0  0
   -0.7680   15.6060   -4.7010 C   0  0  1  0  0  0  0  0  0  0  0  0
   -0.2090   16.8860   -5.3370 C   0  0  0  0  0  0  0  0  0  0  0  0
   -1.4340   18.1300   -5.8940 P   0  0  1  0  0  0  0  0  0  0  0  0
   -0.6290   19.3350   -6.4960 O   0  0  0  0  0  0  0  0  0  0  0  0
   -2.5120   17.6130   -6.8010 O   0  0  0  0  0  0  0  0  0  0  0  0
   -2.0290   18.9130   -4.6390 O   0  0  0  0  0  0  0  0  0  0  0  0
   -0.2630   19.7320   -7.9380 P   0  0  0  0  0  0  0  0  0  0  0  0
   -1.5190   20.5780   -8.4200 O   0  0  0  0  0  0  0  0  0  0  0  0
    0.1170   18.6570   -8.8690 O   0  0  0  0  0  0  0  0  0  0  0  0
    0.8240   20.8880   -7.7660 O   0  0  0  0  0  0  0  0  0  0  0  0
  2  1  1  6
  2  3  1  0
  2  4  1  0
  4  5  1  1
  3  6  1  0
  4  7  1  0
  6  7  1  0
  7  8  1  6
  8  9  1  0
  9 10  1  0
  9 11  2  0
  9 12  1  1
 10 13  1  0
 13 14  1  0
 13 15  2  0
 13 16  1  0
M  END
>  <%Rank>  (521) 
39.694656

>  <N_hits>  (521) 
2

>  <submitter_name>  (521) 
nan

>  <original SMILES>  (521) 
nan

>  <∆G_unbound>  (521) 
1.057928

>  <∆G_bound>  (521) 
-10.076262

>  <regarded>  (521) 
mArh-5cms_J_9_J_γ,mArh-5cb5_M_1_M_β

>  <ref_pdb>  (521) 
nan

>  <smiles>  (521) 
O=P(O)(O)OP(=O)(O)CC1OCC(O)C1O

>  <submitter_email>  (521) 
nan

>  <disregarded>  (521) 


>  <LE>  (521) 
-0.695887

>  <submitter_institution>  (521) 
nan

>  <ref_mols>  (521) 
mArh-5cms_J_9_J,mArh-5cb5_M_1_M

>  <N_constrained_atoms>  (521) 
16.0

>  <ref_url>  (521) 
nan

>  <method>  (521) 
nan

>  <comRMSD>  (521) 
0.853245

>  <N_unconstrained_atoms>  (521) 
0.0

>  <∆∆G>  (521) 
-11.13419

>  <runtime>  (521) 
32.182305

>  <generation_date>  (521) 
nan

$$$$
5CMS_0_O_β-mArh-x0805_0_A_β
     RDKit          3D

 19 19  0  0  0  0  0  0  0  0999 V2000
   -1.4450   20.8440   -8.0480 O   0  0  0  0  0  0  0  0  0  0  0  0
   -0.4540   19.6570   -7.5670 P   0  0  0  0  0  0  0  0  0  0  0  0
   -1.5290   18.5790   -7.4700 O   0  0  0  0  0  0  0  0  0  0  0  0
    0.7970   20.5340   -7.7070 O   0  0  0  0  0  0  0  0  0  0  0  0
    0.1680   18.6880   -8.7680 O   0  0  0  0  0  0  0  0  0  0  0  0
   -2.1240   17.9270   -6.1160 P   0  0  0  0  0  0  0  0  0  0  0  0
   -0.8980   17.0970   -5.7020 O   0  0  0  0  0  0  0  0  0  0  0  0
   -2.9830   16.5040   -6.2400 O   0  0  0  0  0  0  0  0  0  0  0  0
   -2.0790   18.8060   -4.7630 O   0  0  0  0  0  0  0  0  0  0  0  0
   -1.2210   16.0270   -4.8460 C   0  0  0  0  0  0  0  0  0  0  0  0
   -0.0350   15.5270   -4.0990 C   0  0  1  0  0  0  0  0  0  0  0  0
   -0.3430   14.1890   -3.4550 C   0  0  0  0  0  0  0  0  0  0  0  0
    1.2430   15.3850   -4.8840 C   0  0  0  0  0  0  0  0  0  0  0  0
    0.4410   12.9940   -3.9110 C   0  0  2  0  0  0  0  0  0  0  0  0
    2.1720   14.5440   -4.3420 O   0  0  0  0  0  0  0  0  0  0  0  0
    0.5100   12.1150   -2.7240 C   0  0  0  0  0  0  0  0  0  0  0  0
    1.8230   13.2500   -4.3720 C   0  0  0  0  0  0  0  0  0  0  0  0
    0.4630   10.7530   -2.9440 O   0  0  0  0  0  0  0  0  0  0  0  0
    0.6020   12.5470   -1.5430 O   0  0  0  0  0  0  0  0  0  0  0  0
  1  2  1  0
  2  3  1  0
  2  4  1  0
  2  5  1  0
  3  6  1  0
  6  7  1  0
  6  8  1  0
  6  9  1  0
  7 10  1  0
 11 10  1  6
 11 12  1  0
 11 13  1  0
 12 14  1  0
 13 15  1  0
 14 16  1  1
 14 17  1  0
 15 17  1  0
 16 18  1  0
 16 19  2  0
M  CHG  2   4  -1   8  -1
M  END
>  <%Rank>  (522) 
39.770992

>  <N_hits>  (522) 
2

>  <submitter_name>  (522) 
nan

>  <original SMILES>  (522) 
nan

>  <∆G_unbound>  (522) 
1.72029

>  <∆G_bound>  (522) 
-8.976639

>  <regarded>  (522) 
5CMS_0_O_β,mArh-x0805_0_A_β

>  <ref_pdb>  (522) 
nan

>  <smiles>  (522) 
O=C(O)C1COCC(CO[PH]([O-])(O)O[PH]([O-])(O)O)C1

>  <submitter_email>  (522) 
nan

>  <disregarded>  (522) 


>  <LE>  (522) 
-0.562996

>  <submitter_institution>  (522) 
nan

>  <ref_mols>  (522) 
5CMS_0_O,mArh-x0805_0_A

>  <N_constrained_atoms>  (522) 
18.0

>  <ref_url>  (522) 
nan

>  <method>  (522) 
nan

>  <comRMSD>  (522) 
0.802972

>  <N_unconstrained_atoms>  (522) 
1.0

>  <∆∆G>  (522) 
-10.696929

>  <runtime>  (522) 
31.393263

>  <generation_date>  (522) 
nan

$$$$
mArh-4iqy_A_0_A_β-mArh-EU0123_0_A_α
     RDKit          3D

 21 21  0  0  0  0  0  0  0  0999 V2000
   -1.6620   20.6000   -8.4080 O   0  0  0  0  0  0  0  0  0  0  0  0
   -0.4970   19.8210   -7.6520 P   0  0  0  0  0  0  0  0  0  0  0  0
   -1.1860   19.3090   -6.2540 O   0  0  0  0  0  0  0  0  0  0  0  0
    0.7760   20.5800   -7.5290 O   0  0  0  0  0  0  0  0  0  0  0  0
   -0.3470   18.5310   -8.6010 O   0  0  0  0  0  0  0  0  0  0  0  0
   -1.6060   17.8010   -6.0370 P   0  0  0  0  0  0  0  0  0  0  0  0
   -0.2690   16.9690   -6.0940 O   0  0  0  0  0  0  0  0  0  0  0  0
   -2.5020   17.1810   -4.8050 N   0  0  0  0  0  0  0  0  0  0  0  0
   -2.5190   17.4440   -7.2140 O   0  0  0  0  0  0  0  0  0  0  0  0
   -3.2530   16.0120   -5.3610 C   0  0  0  0  0  0  0  0  0  0  0  0
   -4.0380   15.0860   -4.4140 C   0  0  0  0  0  0  0  0  0  0  0  0
   -3.7320   15.3930   -2.9720 C   0  0  0  0  0  0  0  0  0  0  0  0
   -4.7000   15.1280   -1.8500 C   0  0  0  0  0  0  0  0  0  0  0  0
   -6.0290   14.8100   -1.9410 N   0  0  0  0  0  0  0  0  0  0  0  0
   -4.0660   15.2380   -0.6650 C   0  0  0  0  0  0  0  0  0  0  0  0
   -4.6940   15.0250    0.5150 C   0  0  0  0  0  0  0  0  0  0  0  0
   -6.6650   14.5930   -0.7470 C   0  0  0  0  0  0  0  0  0  0  0  0
   -3.8000   15.1970    1.6860 C   0  0  0  0  0  0  0  0  0  0  0  0
   -6.0500   14.6750    0.5140 C   0  0  0  0  0  0  0  0  0  0  0  0
   -6.8520   14.3940    1.7540 C   0  0  0  0  0  0  0  0  0  0  0  0
   -6.5040   15.2470    2.8270 O   0  0  0  0  0  0  0  0  0  0  0  0
  1  2  1  0
  2  3  1  0
  2  4  2  0
  2  5  1  0
  3  6  1  0
  6  7  1  0
  6  8  2  3
  6  9  1  0
  8 10  1  0
 10 11  1  0
 11 12  1  0
 12 13  1  0
 13 14  2  0
 13 15  1  0
 15 16  2  0
 14 17  1  0
 16 18  1  0
 16 19  1  0
 17 19  2  0
 19 20  1  0
 20 21  1  0
M  END
>  <%Rank>  (523) 
39.847328

>  <N_hits>  (523) 
2

>  <submitter_name>  (523) 
nan

>  <original SMILES>  (523) 
nan

>  <∆G_unbound>  (523) 
1.062824

>  <∆G_bound>  (523) 
-10.131516

>  <regarded>  (523) 
mArh-4iqy_A_0_A_β,mArh-EU0123_0_A_α

>  <ref_pdb>  (523) 
nan

>  <smiles>  (523) 
Cc1cc(CCCN=P(O)(O)OP(=O)(O)O)ncc1CO

>  <submitter_email>  (523) 
nan

>  <disregarded>  (523) 


>  <LE>  (523) 
-0.533064

>  <submitter_institution>  (523) 
nan

>  <ref_mols>  (523) 
mArh-4iqy_A_0_A,mArh-EU0123_0_A

>  <N_constrained_atoms>  (523) 
18.0

>  <ref_url>  (523) 
nan

>  <method>  (523) 
nan

>  <comRMSD>  (523) 
0.732698

>  <N_unconstrained_atoms>  (523) 
3.0

>  <∆∆G>  (523) 
-11.19434

>  <runtime>  (523) 
42.318252

>  <generation_date>  (523) 
nan

$$$$
mArh-5fud_A_0_A_α-mArh-5cms_E_5_E_γ
     RDKit          3D

 23 24  0  0  0  0  0  0  0  0999 V2000
   -1.1620   20.1080   -6.1830 O   0  0  0  0  0  0  0  0  0  0  0  0
   -0.6760   20.3060   -7.5200 S   0  0  0  0  0  0  0  0  0  0  0  0
    0.5070   21.0670   -7.8360 O   0  0  0  0  0  0  0  0  0  0  0  0
   -0.4570   18.8100   -8.0550 O   0  0  0  0  0  0  0  0  0  0  0  0
   -2.0530   20.9190   -8.3830 C   0  0  0  0  0  0  0  0  0  0  0  0
   -2.3780   22.3180   -8.0040 C   0  0  0  0  0  0  0  0  0  0  0  0
    0.0850   18.0390   -6.9590 C   0  0  0  0  0  0  0  0  0  0  0  0
    0.3580   18.7900   -5.7190 C   0  0  0  0  0  0  0  0  0  0  0  0
   -3.8120   22.4870   -8.0180 N   0  0  0  0  0  0  0  0  0  0  0  0
    0.6930   17.8750   -4.5410 C   0  0  0  0  0  0  0  0  0  0  0  0
   -4.3450   22.7400   -9.3740 C   0  0  0  0  0  0  0  0  0  0  0  0
   -4.1160   23.5850   -7.1150 C   0  0  0  0  0  0  0  0  0  0  0  0
    1.0100   16.4500   -4.9830 C   0  0  0  0  0  0  0  0  0  0  0  0
   -5.8300   23.1100   -9.3860 C   0  0  0  0  0  0  0  0  0  0  0  0
   -5.5980   23.8350   -7.1570 C   0  0  0  0  0  0  0  0  0  0  0  0
   -6.0810   24.1630   -8.4610 O   0  0  0  0  0  0  0  0  0  0  0  0
   -0.0910   15.4350   -4.7110 C   0  0  2  0  0  0  0  0  0  0  0  0
   -0.2040   15.3230   -3.2770 O   0  0  0  0  0  0  0  0  0  0  0  0
    0.0470   13.9820   -5.1780 C   0  0  1  0  0  0  0  0  0  0  0  0
    1.2990   13.3320   -5.0270 O   0  0  0  0  0  0  0  0  0  0  0  0
   -0.8530   14.0640   -2.9940 C   0  0  0  0  0  0  0  0  0  0  0  0
   -1.0120   13.3250   -4.3230 C   0  0  2  0  0  0  0  0  0  0  0  0
   -0.7120   11.9310   -4.2020 O   0  0  0  0  0  0  0  0  0  0  0  0
  1  2  2  0
  2  3  2  0
  2  4  1  0
  2  5  1  0
  5  6  1  0
  4  7  1  0
  7  8  1  0
  6  9  1  0
  8 10  1  0
  9 11  1  0
  9 12  1  0
 10 13  1  0
 11 14  1  0
 12 15  1  0
 14 16  1  0
 15 16  1  0
 17 13  1  1
 17 18  1  0
 17 19  1  0
 19 20  1  1
 18 21  1  0
 19 22  1  0
 21 22  1  0
 22 23  1  1
M  END
>  <%Rank>  (524) 
39.923664

>  <N_hits>  (524) 
2

>  <submitter_name>  (524) 
nan

>  <original SMILES>  (524) 
nan

>  <∆G_unbound>  (524) 
0.734281

>  <∆G_bound>  (524) 
-7.911609

>  <regarded>  (524) 
mArh-5fud_A_0_A_α,mArh-5cms_E_5_E_γ

>  <ref_pdb>  (524) 
nan

>  <smiles>  (524) 
O=S(=O)(CCN1CCOCC1)OCCCCC1OCC(O)C1O

>  <submitter_email>  (524) 
nan

>  <disregarded>  (524) 


>  <LE>  (524) 
-0.375908

>  <submitter_institution>  (524) 
nan

>  <ref_mols>  (524) 
mArh-5fud_A_0_A,mArh-5cms_E_5_E

>  <N_constrained_atoms>  (524) 
20.0

>  <ref_url>  (524) 
nan

>  <method>  (524) 
nan

>  <comRMSD>  (524) 
0.701944

>  <N_unconstrained_atoms>  (524) 
3.0

>  <∆∆G>  (524) 
-8.64589

>  <runtime>  (524) 
45.747946

>  <generation_date>  (524) 
nan

$$$$
5CMS_0_G_α-mArh-x0592_0_A_α
     RDKit          3D

 23 23  0  0  0  0  0  0  0  0999 V2000
   -1.3830   16.3850   -5.7150 O   0  0  0  0  0  0  0  0  0  0  0  0
   -1.3650   17.8990   -5.9280 P   0  0  0  0  0  0  0  0  0  0  0  0
   -1.3810   18.1090   -4.3590 O   0  0  0  0  0  0  0  0  0  0  0  0
   -2.7830   17.6740   -6.7900 O   0  0  0  0  0  0  0  0  0  0  0  0
   -1.3670   19.3450   -6.4810 O   0  0  0  0  0  0  0  0  0  0  0  0
   -0.8720   19.8290   -7.9440 P   0  0  0  0  0  0  0  0  0  0  0  0
   -0.3340   17.5060   -3.6880 C   0  0  0  0  0  0  0  0  0  0  0  0
   -1.6300   21.1760   -7.9930 O   0  0  0  0  0  0  0  0  0  0  0  0
   -0.0730   18.5960   -8.4170 O   0  0  0  0  0  0  0  0  0  0  0  0
    0.5540   20.6710   -8.0220 O   0  0  0  0  0  0  0  0  0  0  0  0
   -0.5950   16.3120   -2.7550 C   0  0  0  0  0  0  0  0  0  0  0  0
   -2.0390   15.7560   -2.7900 C   0  0  0  0  0  0  0  0  0  0  0  0
   -2.6110   15.4900   -1.5870 N   0  0  0  0  0  0  0  0  0  0  0  0
   -3.2350   15.2490   -0.5760 C   0  0  0  0  0  0  0  0  0  0  0  0
   -2.5590   15.1290    0.7090 N   0  0  0  0  0  0  0  0  0  0  0  0
   -4.6970   15.0570   -0.5250 C   0  0  0  0  0  0  0  0  0  0  0  0
   -5.6000   15.2520   -1.5460 C   0  0  0  0  0  0  0  0  0  0  0  0
   -5.4640   14.6470    0.5420 C   0  0  0  0  0  0  0  0  0  0  0  0
   -6.8290   14.9680   -1.0820 N   0  0  0  0  0  0  0  0  0  0  0  0
   -6.7860   14.6000    0.1690 N   0  0  0  0  0  0  0  0  0  0  0  0
   -7.8780   14.2100    1.0470 C   0  0  0  0  0  0  0  0  0  0  0  0
   -7.5300   14.8230    2.4000 C   0  0  0  0  0  0  0  0  0  0  0  0
   -7.3510   13.8840    3.3870 O   0  0  0  0  0  0  0  0  0  0  0  0
  1  2  1  0
  2  3  1  0
  2  4  1  0
  2  5  1  0
  5  6  1  0
  3  7  1  0
  6  8  1  0
  6  9  1  0
  6 10  1  0
  7 11  1  0
 11 12  1  0
 12 13  1  0
 13 14  2  3
 14 15  1  0
 14 16  1  0
 16 17  1  0
 16 18  2  0
 17 19  2  0
 18 20  1  0
 19 20  1  0
 20 21  1  0
 21 22  1  0
 22 23  1  0
M  CHG  1   9  -1
M  END
>  <%Rank>  (525) 
40.0

>  <N_hits>  (525) 
2

>  <submitter_name>  (525) 
nan

>  <original SMILES>  (525) 
nan

>  <∆G_unbound>  (525) 
1.077748

>  <∆G_bound>  (525) 
-11.132033

>  <regarded>  (525) 
5CMS_0_G_α,mArh-x0592_0_A_α

>  <ref_pdb>  (525) 
nan

>  <smiles>  (525) 
NC(=NCCCO[PH](O)(O)O[PH]([O-])(O)O)c1cnn(CCO)c1

>  <submitter_email>  (525) 
nan

>  <disregarded>  (525) 


>  <LE>  (525) 
-0.53086

>  <submitter_institution>  (525) 
nan

>  <ref_mols>  (525) 
5CMS_0_G,mArh-x0592_0_A

>  <N_constrained_atoms>  (525) 
20.0

>  <ref_url>  (525) 
nan

>  <method>  (525) 
nan

>  <comRMSD>  (525) 
0.779495

>  <N_unconstrained_atoms>  (525) 
3.0

>  <∆∆G>  (525) 
-12.20978

>  <runtime>  (525) 
40.623641

>  <generation_date>  (525) 
nan

$$$$
5CB5_0_A_β-5CMS_0_I_δ
     RDKit          3D

 21 22  0  0  0  0  0  0  0  0999 V2000
   -1.1810   20.3680   -9.1620 O   0  0  0  0  0  0  0  0  0  0  0  0
   -0.7700   19.8050   -7.8360 P   0  0  0  0  0  0  0  0  0  0  0  0
   -0.5950   19.0640   -6.5210 O   0  0  0  0  0  0  0  0  0  0  0  0
    0.3440   20.9430   -7.5830 O   0  0  0  0  0  0  0  0  0  0  0  0
   -0.2250   18.4630   -8.6470 O   0  0  0  0  0  0  0  0  0  0  0  0
   -1.3980   17.9080   -5.9270 P   0  0  0  0  0  0  0  0  0  0  0  0
   -2.0800   16.6320   -5.3850 O   0  0  0  0  0  0  0  0  0  0  0  0
   -2.5760   18.0540   -7.0490 O   0  0  0  0  0  0  0  0  0  0  0  0
   -1.6340   18.6930   -4.5320 O   0  0  0  0  0  0  0  0  0  0  0  0
   -1.3240   15.7740   -4.5650 C   0  0  0  0  0  0  0  0  0  0  0  0
   -1.4580   16.1040   -3.1070 C   0  0  0  0  0  0  0  0  0  0  0  0
   -1.8190   14.9200   -2.2980 N   0  0  0  0  0  0  0  0  0  0  0  0
   -1.4960   15.1960   -0.9300 C   0  0  1  0  0  0  0  0  0  0  0  0
   -3.2660   14.8050   -2.3620 C   0  0  0  0  0  0  0  0  0  0  0  0
   -2.6520   14.4510   -0.2350 C   0  0  2  0  0  0  0  0  0  0  0  0
   -3.7440   14.9630   -0.9750 N   0  0  0  0  0  0  0  0  0  0  0  0
   -0.2680   14.5900   -0.4560 N   0  0  0  0  0  0  0  0  0  0  0  0
   -0.2270   14.8670    0.9680 C   0  0  0  0  0  0  0  0  0  0  0  0
   -2.6310   14.8400    1.2170 C   0  0  2  0  0  0  0  0  0  0  0  0
   -3.7830   15.7060    1.4670 N   0  0  0  0  0  0  0  0  0  0  0  0
   -1.3980   15.5780    1.3550 N   0  0  0  0  0  0  0  0  0  0  0  0
  1  2  1  0
  2  3  1  0
  2  4  1  0
  2  5  1  0
  3  6  1  0
  6  7  1  0
  6  8  1  0
  6  9  1  0
  7 10  1  0
 10 11  1  0
 11 12  1  0
 12 13  1  0
 12 14  1  0
 13 15  1  0
 14 16  1  0
 15 16  1  6
 13 17  1  1
 17 18  1  0
 15 19  1  0
 19 20  1  6
 18 21  1  0
 19 21  1  0
M  CHG  2   4  -1   8  -1
M  END
>  <%Rank>  (526) 
40.076336

>  <N_hits>  (526) 
2

>  <submitter_name>  (526) 
nan

>  <original SMILES>  (526) 
nan

>  <∆G_unbound>  (526) 
0.88229

>  <∆G_bound>  (526) 
-6.936203

>  <regarded>  (526) 
5CB5_0_A_β,5CMS_0_I_δ

>  <ref_pdb>  (526) 
nan

>  <smiles>  (526) 
NC1NCNC2C1NCN2CCO[PH]([O-])(O)O[PH]([O-])(O)O

>  <submitter_email>  (526) 
nan

>  <disregarded>  (526) 


>  <LE>  (526) 
-0.372309

>  <submitter_institution>  (526) 
nan

>  <ref_mols>  (526) 
5CB5_0_A,5CMS_0_I

>  <N_constrained_atoms>  (526) 
19.0

>  <ref_url>  (526) 
nan

>  <method>  (526) 
nan

>  <comRMSD>  (526) 
0.7035

>  <N_unconstrained_atoms>  (526) 
2.0

>  <∆∆G>  (526) 
-7.818493

>  <runtime>  (526) 
28.505636

>  <generation_date>  (526) 
nan

$$$$
mArh-5cms_D_3_D_γ-mArh-x1012_0_A_α
     RDKit          3D

 21 23  0  0  0  0  0  0  0  0999 V2000
   -4.2060   15.2630    1.3540 N   0  0  0  0  0  0  0  0  0  0  0  0
   -2.9030   15.6640    0.8590 C   0  0  2  0  0  0  0  0  0  0  0  0
   -2.7670   15.5410   -0.6930 C   0  0  1  0  0  0  0  0  0  0  0  0
   -1.9490   14.8610    1.5730 N   0  0  0  0  0  0  0  0  0  0  0  0
   -1.3200   15.2850   -1.2190 C   0  0  2  0  0  0  0  0  0  0  0  0
   -3.6520   14.5200   -1.2960 N   0  0  0  0  0  0  0  0  0  0  0  0
   -0.6130   15.0880    1.0590 C   0  0  0  0  0  0  0  0  0  0  0  0
   -1.5560   14.4810   -2.5530 C   0  0  1  0  0  0  0  0  0  0  0  0
   -2.7670   13.6450   -2.0960 C   0  0  0  0  0  0  0  0  0  0  0  0
   -0.5300   14.5140   -0.2490 N   0  0  0  0  0  0  0  0  0  0  0  0
   -2.0240   15.3460   -3.7610 C   0  0  0  0  0  0  0  0  0  0  0  0
   -0.3740   13.6290   -3.1290 C   0  0  2  0  0  0  0  0  0  0  0  0
    0.1730   12.5210   -2.2470 C   0  0  0  0  0  0  0  0  0  0  0  0
    0.7780   14.5510   -3.5830 C   0  0  0  0  0  0  0  0  0  0  0  0
   -0.9710   16.1690   -4.3630 N   0  0  0  0  0  0  0  0  0  0  0  0
   -1.1770   17.4870   -4.6330 C   0  0  0  0  0  0  0  0  0  0  0  0
    0.2170   11.2930   -2.7860 O   0  0  0  0  0  0  0  0  0  0  0  0
    0.5560   12.6900   -1.1090 O   0  0  0  0  0  0  0  0  0  0  0  0
    0.3440   15.5730   -4.6400 C   0  0  0  0  0  0  0  0  0  0  0  0
   -0.0960   18.2850   -4.6740 N   0  0  0  0  0  0  0  0  0  0  0  0
   -2.2770   17.9690   -4.8320 O   0  0  0  0  0  0  0  0  0  0  0  0
  2  1  1  1
  2  3  1  0
  2  4  1  0
  3  5  1  0
  3  6  1  1
  4  7  1  0
  5  8  1  0
  6  9  1  0
  8  9  1  1
  5 10  1  1
  7 10  1  0
  8 11  1  0
  8 12  1  0
 12 13  1  1
 12 14  1  0
 11 15  1  0
 15 16  1  0
 13 17  1  0
 13 18  2  0
 14 19  1  0
 15 19  1  0
 16 20  1  0
 16 21  2  0
M  END
>  <%Rank>  (527) 
40.152672

>  <N_hits>  (527) 
2

>  <submitter_name>  (527) 
nan

>  <original SMILES>  (527) 
nan

>  <∆G_unbound>  (527) 
2.3352

>  <∆G_bound>  (527) 
-3.62016

>  <regarded>  (527) 
mArh-5cms_D_3_D_γ,mArh-x1012_0_A_α

>  <ref_pdb>  (527) 
nan

>  <smiles>  (527) 
NC(=O)N1CCC(C(=O)O)C2(CNC3C(N)NCNC32)C1

>  <submitter_email>  (527) 
nan

>  <disregarded>  (527) 


>  <LE>  (527) 
-0.283589

>  <submitter_institution>  (527) 
nan

>  <ref_mols>  (527) 
mArh-5cms_D_3_D,mArh-x1012_0_A

>  <N_constrained_atoms>  (527) 
21.0

>  <ref_url>  (527) 
nan

>  <method>  (527) 
nan

>  <comRMSD>  (527) 
0.749404

>  <N_unconstrained_atoms>  (527) 
0.0

>  <∆∆G>  (527) 
-5.95536

>  <runtime>  (527) 
24.545113

>  <generation_date>  (527) 
nan

$$$$
mArh-4iqy_B_0_B_β-mArh-x0742_0_A_α
     RDKit          3D

 28 30  0  0  0  0  0  0  0  0999 V2000
   -1.6360   20.6080   -8.4860 O   0  0  0  0  0  0  0  0  0  0  0  0
   -0.4590   19.8410   -7.7490 P   0  0  0  0  0  0  0  0  0  0  0  0
   -1.2010   19.3770   -6.3990 O   0  0  0  0  0  0  0  0  0  0  0  0
    0.8010   20.6100   -7.5690 O   0  0  0  0  0  0  0  0  0  0  0  0
   -0.2880   18.5390   -8.6670 O   0  0  0  0  0  0  0  0  0  0  0  0
   -1.4290   17.8850   -5.9800 P   0  0  0  0  0  0  0  0  0  0  0  0
   -0.1300   17.0670   -6.2650 O   0  0  0  0  0  0  0  0  0  0  0  0
   -1.7370   17.6710   -4.3750 N   0  0  0  0  0  0  0  0  0  0  0  0
   -2.6120   17.2890   -6.8340 O   0  0  0  0  0  0  0  0  0  0  0  0
   -0.8150   16.7020   -3.7690 C   0  0  0  0  0  0  0  0  0  0  0  0
   -1.5750   15.4700   -3.2510 C   0  0  0  0  0  0  0  0  0  0  0  0
   -2.9480   15.8370   -2.7040 C   0  0  0  0  0  0  0  0  0  0  0  0
   -3.9920   14.8080   -2.2330 C   0  0  1  0  0  0  0  0  0  0  0  0
   -3.6340   13.7980   -1.1090 C   0  0  2  0  0  0  0  0  0  0  0  0
   -5.2760   15.4910   -1.7370 C   0  0  0  0  0  0  0  0  0  0  0  0
   -4.9360   13.5400   -0.2810 C   0  0  1  0  0  0  0  0  0  0  0  0
   -5.9930   14.5350   -0.8150 C   0  0  0  0  0  0  0  0  0  0  0  0
   -2.3770   14.0220   -0.3150 C   0  0  0  0  0  0  0  0  0  0  0  0
   -5.4600   12.1310   -0.6010 C   0  0  0  0  0  0  0  0  0  0  0  0
   -4.8030   13.7410    1.2370 C   0  0  0  0  0  0  0  0  0  0  0  0
   -1.1020   13.7930   -0.8490 C   0  0  0  0  0  0  0  0  0  0  0  0
   -2.4410   14.4670    0.9920 C   0  0  0  0  0  0  0  0  0  0  0  0
   -5.0120   11.4450   -1.5240 O   0  0  0  0  0  0  0  0  0  0  0  0
   -6.5740   11.5820    0.2530 C   0  0  0  0  0  0  0  0  0  0  0  0
   -1.3750   14.6820    1.7640 N   0  0  0  0  0  0  0  0  0  0  0  0
    0.0200   14.0140   -0.0660 C   0  0  0  0  0  0  0  0  0  0  0  0
   -3.7390   14.7450    1.6340 C   0  0  0  0  0  0  0  0  0  0  0  0
   -0.1810   14.4550    1.2280 C   0  0  0  0  0  0  0  0  0  0  0  0
  1  2  1  0
  2  3  1  0
  2  4  2  0
  2  5  1  0
  3  6  1  0
  6  7  1  0
  6  8  2  3
  6  9  1  0
  8 10  1  0
 10 11  1  0
 11 12  1  0
 13 12  1  1
 13 14  1  0
 13 15  1  0
 14 16  1  0
 15 17  1  0
 16 17  1  0
 14 18  1  1
 16 19  1  1
 16 20  1  0
 18 21  1  0
 18 22  2  0
 19 23  2  0
 19 24  1  0
 22 25  1  0
 21 26  2  0
 20 27  1  0
 22 27  1  0
 25 28  2  0
 26 28  1  0
M  END
>  <%Rank>  (528) 
40.229008

>  <N_hits>  (528) 
2

>  <submitter_name>  (528) 
nan

>  <original SMILES>  (528) 
nan

>  <∆G_unbound>  (528) 
-0.023291

>  <∆G_bound>  (528) 
-14.896827

>  <regarded>  (528) 
mArh-4iqy_B_0_B_β,mArh-x0742_0_A_α

>  <ref_pdb>  (528) 
nan

>  <smiles>  (528) 
CC(=O)C12CCc3ncccc3C1C(CCCN=P(O)(O)OP(=O)(O)O)CC2

>  <submitter_email>  (528) 
nan

>  <disregarded>  (528) 


>  <LE>  (528) 
-0.531198

>  <submitter_institution>  (528) 
nan

>  <ref_mols>  (528) 
mArh-4iqy_B_0_B,mArh-x0742_0_A

>  <N_constrained_atoms>  (528) 
20.0

>  <ref_url>  (528) 
nan

>  <method>  (528) 
nan

>  <comRMSD>  (528) 
0.655099

>  <N_unconstrained_atoms>  (528) 
8.0

>  <∆∆G>  (528) 
-14.873536

>  <runtime>  (528) 
35.262502

>  <generation_date>  (528) 
nan

$$$$
mArh-x0727_0_A_α-5CMS_0_I_β
     RDKit          3D

 24 24  0  0  0  0  0  0  0  0999 V2000
    0.2020   12.2540   -5.5710 N   0  0  0  0  0  0  0  0  0  0  0  0
    1.1620   12.6960   -4.6090 C   0  0  1  0  0  0  0  0  0  0  0  0
    1.0160   14.1700   -4.2710 C   0  0  0  0  0  0  0  0  0  0  0  0
    0.4230   11.3140   -6.6050 C   0  0  0  0  0  0  0  0  0  0  0  0
    1.5010   11.3640   -7.2400 O   0  0  0  0  0  0  0  0  0  0  0  0
    0.8970   12.0510   -3.3070 C   0  0  0  0  0  0  0  0  0  0  0  0
   -0.5990   10.3020   -6.9260 C   0  0  0  0  0  0  0  0  0  0  0  0
    0.2880   10.9620   -3.2390 O   0  0  0  0  0  0  0  0  0  0  0  0
    1.3040   12.6430   -2.1300 O   0  0  0  0  0  0  0  0  0  0  0  0
    0.5120   15.0730   -5.3380 C   0  0  0  0  0  0  0  0  0  0  0  0
   -1.0100   10.2260   -8.3800 C   0  0  0  0  0  0  0  0  0  0  0  0
   -0.1830    8.8660   -6.7190 C   0  0  0  0  0  0  0  0  0  0  0  0
    0.1310   16.4600   -4.8960 C   0  0  0  0  0  0  0  0  0  0  0  0
   -1.9460    9.0570   -8.3230 C   0  0  0  0  0  0  0  0  0  0  0  0
   -1.4330    8.1860   -7.1710 C   0  0  0  0  0  0  0  0  0  0  0  0
   -0.1270   17.2660   -5.9880 O   0  0  0  0  0  0  0  0  0  0  0  0
   -1.6860   17.8760   -5.7870 P   0  0  0  0  0  0  0  0  0  0  0  0
   -1.4030   19.0790   -6.6720 O   0  0  0  0  0  0  0  0  0  0  0  0
   -2.8570   17.3570   -6.7870 O   0  0  0  0  0  0  0  0  0  0  0  0
   -2.0080   18.8190   -4.5430 O   0  0  0  0  0  0  0  0  0  0  0  0
   -0.1400   19.3290   -7.6740 P   0  0  0  0  0  0  0  0  0  0  0  0
   -0.8480   20.5040   -8.3270 O   0  0  0  0  0  0  0  0  0  0  0  0
    1.1020   20.3590   -7.2870 O   0  0  0  0  0  0  0  0  0  0  0  0
    0.0350   18.4480   -8.9950 O   0  0  0  0  0  0  0  0  0  0  0  0
  1  2  1  0
  2  3  1  1
  1  4  1  0
  4  5  2  0
  2  6  1  0
  4  7  1  0
  6  8  2  0
  6  9  1  0
  3 10  1  0
  7 11  1  0
  7 12  1  0
 10 13  1  0
 11 14  1  0
 12 15  1  0
 14 15  1  0
 13 16  1  0
 16 17  1  0
 17 18  1  0
 17 19  1  0
 17 20  1  0
 18 21  1  0
 21 22  1  0
 21 23  1  0
 21 24  1  0
M  CHG  2  19  -1  23  -1
M  END
>  <%Rank>  (529) 
40.305344

>  <N_hits>  (529) 
2

>  <submitter_name>  (529) 
nan

>  <original SMILES>  (529) 
nan

>  <∆G_unbound>  (529) 
1.825335

>  <∆G_bound>  (529) 
-7.951691

>  <regarded>  (529) 
mArh-x0727_0_A_α,5CMS_0_I_β

>  <ref_pdb>  (529) 
nan

>  <smiles>  (529) 
O=C(N[C@@H](CCCO[PH]([O-])(O)O[PH]([O-])(O)O)C(=O)O)C1CCCC1

>  <submitter_email>  (529) 
nan

>  <disregarded>  (529) 


>  <LE>  (529) 
-0.407376

>  <submitter_institution>  (529) 
nan

>  <ref_mols>  (529) 
mArh-x0727_0_A,5CMS_0_I

>  <N_constrained_atoms>  (529) 
22.0

>  <ref_url>  (529) 
nan

>  <method>  (529) 
nan

>  <comRMSD>  (529) 
0.784923

>  <N_unconstrained_atoms>  (529) 
2.0

>  <∆∆G>  (529) 
-9.777026

>  <runtime>  (529) 
41.300406

>  <generation_date>  (529) 
nan

$$$$
mArh-5cms_P_15_P_β-mArh-EU0860_0_A_α
     RDKit          3D

 21 21  0  0  0  0  0  0  0  0999 V2000
   -1.1450   20.7080   -8.4870 O   0  0  0  0  0  0  0  0  0  0  0  0
   -0.2670   19.6520   -7.6980 P   0  0  0  0  0  0  0  0  0  0  0  0
   -1.1640   19.2170   -6.4650 O   0  0  0  0  0  0  0  0  0  0  0  0
    1.0540   20.2220   -7.3580 O   0  0  0  0  0  0  0  0  0  0  0  0
   -0.1910   18.4740   -8.7490 O   0  0  0  0  0  0  0  0  0  0  0  0
   -1.6030   17.7620   -6.0000 P   0  0  2  0  0  0  0  0  0  0  0  0
   -0.3660   16.7030   -5.9360 O   0  0  0  0  0  0  0  0  0  0  0  0
   -2.7970   17.2810   -6.7370 O   0  0  0  0  0  0  0  0  0  0  0  0
   -1.9120   18.0150   -4.4860 O   0  0  0  0  0  0  0  0  0  0  0  0
   -0.1150   15.7340   -4.8750 C   0  0  0  0  0  0  0  0  0  0  0  0
   -0.8350   14.3300   -4.9330 C   0  0  0  0  0  0  0  0  0  0  0  0
   -0.4980   13.3500   -6.1010 C   0  0  0  0  0  0  0  0  0  0  0  0
   -0.3600   11.7890   -6.0440 C   0  0  0  0  0  0  0  0  0  0  0  0
   -0.4080   11.0170   -7.3440 N   0  0  0  0  0  0  0  0  0  0  0  0
   -1.0800    9.7220   -7.4360 N   0  0  0  0  0  0  0  0  0  0  0  0
    0.7470   11.0330   -8.2330 C   0  0  0  0  0  0  0  0  0  0  0  0
   -1.1580    9.0690   -6.1290 C   0  0  0  0  0  0  0  0  0  0  0  0
    1.0130    9.5800   -8.6000 C   0  0  1  0  0  0  0  0  0  0  0  0
   -0.3260    8.9040   -8.4120 C   0  0  0  0  0  0  0  0  0  0  0  0
    1.5640    9.4450  -10.0010 C   0  0  0  0  0  0  0  0  0  0  0  0
    2.1060    8.4290  -10.4420 O   0  0  0  0  0  0  0  0  0  0  0  0
  1  2  1  0
  2  3  1  0
  2  4  2  0
  2  5  1  0
  3  6  1  0
  6  7  1  0
  6  8  2  0
  6  9  1  1
  7 10  1  0
 10 11  1  0
 11 12  1  0
 12 13  1  0
 13 14  1  0
 14 15  1  0
 14 16  1  0
 15 17  1  0
 16 18  1  0
 15 19  1  0
 18 19  1  0
 18 20  1  6
 20 21  2  0
M  END
>  <%Rank>  (530) 
40.381679

>  <N_hits>  (530) 
2

>  <submitter_name>  (530) 
nan

>  <original SMILES>  (530) 
nan

>  <∆G_unbound>  (530) 
0.945398

>  <∆G_bound>  (530) 
-9.726737

>  <regarded>  (530) 
mArh-5cms_P_15_P_β,mArh-EU0860_0_A_α

>  <ref_pdb>  (530) 
nan

>  <smiles>  (530) 
CN1CC(C=O)CN1CCCCOP(=O)(O)OP(=O)(O)O

>  <submitter_email>  (530) 
nan

>  <disregarded>  (530) 


>  <LE>  (530) 
-0.508197

>  <submitter_institution>  (530) 
nan

>  <ref_mols>  (530) 
mArh-5cms_P_15_P,mArh-EU0860_0_A

>  <N_constrained_atoms>  (530) 
17.0

>  <ref_url>  (530) 
nan

>  <method>  (530) 
nan

>  <comRMSD>  (530) 
0.667237

>  <N_unconstrained_atoms>  (530) 
4.0

>  <∆∆G>  (530) 
-10.672135

>  <runtime>  (530) 
32.194105

>  <generation_date>  (530) 
nan

$$$$
5CB5_0_O_β-mArh-6mea_B_0_B_β
     RDKit          3D

  9  8  0  0  0  0  0  0  0  0999 V2000
   -1.7230   20.7040   -8.2010 O   0  0  0  0  0  0  0  0  0  0  0  0
   -0.2560   20.0280   -8.1030 P   0  0  0  0  0  0  0  0  0  0  0  0
   -0.3420   19.2430   -6.8210 O   0  0  0  0  0  0  0  0  0  0  0  0
    1.0490   20.8980   -7.5690 O   0  0  0  0  0  0  0  0  0  0  0  0
    0.0030   18.5770   -8.8970 O   0  0  0  0  0  0  0  0  0  0  0  0
   -1.6850   18.5960   -6.1640 P   0  0  0  0  0  0  0  0  0  0  0  0
   -0.8870   17.5370   -5.4110 O   0  0  0  0  0  0  0  0  0  0  0  0
   -2.5650   17.4340   -6.8960 O   0  0  0  0  0  0  0  0  0  0  0  0
   -2.2950   19.3520   -4.8310 O   0  0  0  0  0  0  0  0  0  0  0  0
  1  2  1  0
  2  3  1  0
  2  4  1  0
  2  5  1  0
  3  6  1  0
  6  7  1  0
  6  8  1  0
  6  9  1  0
M  CHG  2   4  -1   8  -1
M  END
>  <%Rank>  (531) 
40.458015

>  <N_hits>  (531) 
2

>  <submitter_name>  (531) 
nan

>  <original SMILES>  (531) 
nan

>  <∆G_unbound>  (531) 
0.654534

>  <∆G_bound>  (531) 
-5.760246

>  <regarded>  (531) 
5CB5_0_O_β,mArh-6mea_B_0_B_β

>  <ref_pdb>  (531) 
nan

>  <smiles>  (531) 
[O-][PH](O)(O)O[PH]([O-])(O)O

>  <submitter_email>  (531) 
nan

>  <disregarded>  (531) 


>  <LE>  (531) 
-0.712753

>  <submitter_institution>  (531) 
nan

>  <ref_mols>  (531) 
5CB5_0_O,mArh-6mea_B_0_B

>  <N_constrained_atoms>  (531) 
9.0

>  <ref_url>  (531) 
nan

>  <method>  (531) 
nan

>  <comRMSD>  (531) 
0.663796

>  <N_unconstrained_atoms>  (531) 
0.0

>  <∆∆G>  (531) 
-6.41478

>  <runtime>  (531) 
30.333453

>  <generation_date>  (531) 
nan

$$$$
5CB5_0_I_α-mArh-EU0704_0_A_α
     RDKit          3D

 28 30  0  0  0  0  0  0  0  0999 V2000
   -1.7410   21.4270   -8.2560 C   0  0  0  0  0  0  0  0  0  0  0  0
   -3.1410   21.8120   -8.7090 C   0  0  1  0  0  0  0  0  0  0  0  0
   -4.0780   20.8230   -8.2690 O   0  0  0  0  0  0  0  0  0  0  0  0
   -3.6500   23.1060   -8.1120 C   0  0  1  0  0  0  0  0  0  0  0  0
   -4.6340   23.7110   -8.9890 O   0  0  0  0  0  0  0  0  0  0  0  0
   -4.3810   21.0690   -6.9110 C   0  0  2  0  0  0  0  0  0  0  0  0
   -4.2980   22.6380   -6.7920 C   0  0  2  0  0  0  0  0  0  0  0  0
   -3.5250   20.2950   -5.9550 O   0  0  0  0  0  0  0  0  0  0  0  0
   -5.5940   23.2770   -6.7420 O   0  0  0  0  0  0  0  0  0  0  0  0
   -2.7230   19.1380   -6.4870 C   0  0  0  0  0  0  0  0  0  0  0  0
   -2.2290   17.9430   -5.5110 C   0  0  0  0  0  0  0  0  0  0  0  0
   -3.0090   16.5150   -5.3950 C   0  0  0  0  0  0  0  0  0  0  0  0
   -3.1000   15.8760   -3.9200 C   0  0  0  0  0  0  0  0  0  0  0  0
   -4.3150   15.0400   -3.3090 C   0  0  0  0  0  0  0  0  0  0  0  0
   -4.4460   14.9630   -1.7310 C   0  0  0  0  0  0  0  0  0  0  0  0
   -5.6730   14.7870   -0.9540 C   0  0  0  0  0  0  0  0  0  0  0  0
   -3.2750   15.0450   -0.9450 C   0  0  0  0  0  0  0  0  0  0  0  0
   -5.6420   14.6810    0.4610 C   0  0  0  0  0  0  0  0  0  0  0  0
   -6.9860   14.6810   -1.3680 N   0  0  0  0  0  0  0  0  0  0  0  0
   -3.2780   14.9540    0.4580 C   0  0  0  0  0  0  0  0  0  0  0  0
   -6.9690   14.4780    0.8500 N   0  0  0  0  0  0  0  0  0  0  0  0
   -7.7230   14.5030   -0.2870 C   0  0  0  0  0  0  0  0  0  0  0  0
   -4.4530   14.7650    1.1890 C   0  0  0  0  0  0  0  0  0  0  0  0
   -7.5000   14.2420    2.2040 C   0  0  0  0  0  0  0  0  0  0  0  0
   -8.1090   15.3450    3.0620 C   0  0  0  0  0  0  0  0  0  0  0  0
   -7.5640   15.4110    4.3380 N   0  0  0  0  0  0  0  0  0  0  0  0
   -9.0090   16.0840    2.6690 O   0  0  0  0  0  0  0  0  0  0  0  0
   -8.3360   15.8740    5.4660 C   0  0  0  0  0  0  0  0  0  0  0  0
  2  1  1  1
  2  3  1  0
  2  4  1  0
  4  5  1  6
  3  6  1  0
  4  7  1  0
  6  7  1  0
  6  8  1  1
  7  9  1  6
  8 10  1  0
 10 11  1  0
 11 12  1  0
 12 13  1  0
 13 14  1  0
 14 15  1  0
 15 16  1  0
 15 17  2  0
 16 18  2  0
 16 19  1  0
 17 20  1  0
 18 21  1  0
 19 22  2  0
 21 22  1  0
 18 23  1  0
 20 23  2  0
 21 24  1  0
 24 25  1  0
 25 26  1  0
 25 27  2  0
 26 28  1  0
M  END
>  <%Rank>  (532) 
40.534351

>  <N_hits>  (532) 
2

>  <submitter_name>  (532) 
nan

>  <original SMILES>  (532) 
nan

>  <∆G_unbound>  (532) 
0.691512

>  <∆G_bound>  (532) 
-9.533658

>  <regarded>  (532) 
5CB5_0_I_α,mArh-EU0704_0_A_α

>  <ref_pdb>  (532) 
nan

>  <smiles>  (532) 
CNC(=O)Cn1cnc2c(CCCCCOC3OC(C)C(O)C3O)cccc21

>  <submitter_email>  (532) 
nan

>  <disregarded>  (532) 


>  <LE>  (532) 
-0.365185

>  <submitter_institution>  (532) 
nan

>  <ref_mols>  (532) 
5CB5_0_I,mArh-EU0704_0_A

>  <N_constrained_atoms>  (532) 
23.0

>  <ref_url>  (532) 
nan

>  <method>  (532) 
nan

>  <comRMSD>  (532) 
0.7189

>  <N_unconstrained_atoms>  (532) 
5.0

>  <∆∆G>  (532) 
-10.22517

>  <runtime>  (532) 
51.859278

>  <generation_date>  (532) 
nan

$$$$
5CB5_0_J_γ-5CB5_0_P_β
     RDKit          3D

 16 16  0  0  0  0  0  0  0  0999 V2000
   -0.3870   12.5030   -3.8410 O   0  0  0  0  0  0  0  0  0  0  0  0
   -0.8500   13.8110   -3.8790 C   0  0  1  0  0  0  0  0  0  0  0  0
   -0.3840   14.6400   -2.6880 C   0  0  0  0  0  0  0  0  0  0  0  0
   -0.3030   14.5800   -5.0460 C   0  0  2  0  0  0  0  0  0  0  0  0
    1.0520   14.2470   -5.1870 O   0  0  0  0  0  0  0  0  0  0  0  0
    0.0690   15.8550   -3.2410 O   0  0  0  0  0  0  0  0  0  0  0  0
   -0.5360   15.9260   -4.4770 C   0  0  1  0  0  0  0  0  0  0  0  0
   -0.1170   17.1710   -5.2610 C   0  0  0  0  0  0  0  0  0  0  0  0
   -1.4780   18.1050   -5.8510 P   0  0  0  0  0  0  0  0  0  0  0  0
   -0.9080   18.3710   -7.2410 O   0  0  0  0  0  0  0  0  0  0  0  0
   -2.6820   17.2880   -6.7260 O   0  0  0  0  0  0  0  0  0  0  0  0
   -1.7690   19.6460   -5.4930 O   0  0  0  0  0  0  0  0  0  0  0  0
   -0.5030   19.7490   -7.9700 P   0  0  0  0  0  0  0  0  0  0  0  0
   -1.5420   20.6470   -7.2980 O   0  0  0  0  0  0  0  0  0  0  0  0
    0.7180   20.8120   -7.5360 O   0  0  0  0  0  0  0  0  0  0  0  0
   -1.2160   20.0150   -9.3780 O   0  0  0  0  0  0  0  0  0  0  0  0
  2  1  1  1
  2  3  1  0
  2  4  1  0
  4  5  1  1
  3  6  1  0
  4  7  1  0
  6  7  1  0
  7  8  1  6
  8  9  1  0
  9 10  1  0
  9 11  1  0
  9 12  1  0
 10 13  1  0
 13 14  1  0
 13 15  1  0
 13 16  1  0
M  CHG  2  11  -1  15  -1
M  END
>  <%Rank>  (533) 
40.610687

>  <N_hits>  (533) 
2

>  <submitter_name>  (533) 
nan

>  <original SMILES>  (533) 
nan

>  <∆G_unbound>  (533) 
0.683631

>  <∆G_bound>  (533) 
-5.374434

>  <regarded>  (533) 
5CB5_0_J_γ,5CB5_0_P_β

>  <ref_pdb>  (533) 
nan

>  <smiles>  (533) 
[O-][PH](O)(O)O[PH]([O-])(O)CC1OCC(O)C1O

>  <submitter_email>  (533) 
nan

>  <disregarded>  (533) 


>  <LE>  (533) 
-0.378629

>  <submitter_institution>  (533) 
nan

>  <ref_mols>  (533) 
5CB5_0_J,5CB5_0_P

>  <N_constrained_atoms>  (533) 
16.0

>  <ref_url>  (533) 
nan

>  <method>  (533) 
nan

>  <comRMSD>  (533) 
0.698825

>  <N_unconstrained_atoms>  (533) 
0.0

>  <∆∆G>  (533) 
-6.058066

>  <runtime>  (533) 
34.422089

>  <generation_date>  (533) 
nan

$$$$
5CMS_0_O_δ-mArh-EU0906_0_A_α
     RDKit          3D

 23 25  0  0  0  0  0  0  0  0999 V2000
   -3.6860   15.4500    1.7000 N   0  0  0  0  0  0  0  0  0  0  0  0
   -2.6190   14.6030    1.2060 C   0  0  1  0  0  0  0  0  0  0  0  0
   -2.6960   14.2290   -0.2900 C   0  0  2  0  0  0  0  0  0  0  0  0
   -1.4300   15.2950    1.5450 N   0  0  0  0  0  0  0  0  0  0  0  0
   -1.3140   14.1780   -0.9710 C   0  0  1  0  0  0  0  0  0  0  0  0
   -3.4990   15.1330   -1.1340 N   0  0  0  0  0  0  0  0  0  0  0  0
   -0.2330   14.6310    1.1200 C   0  0  0  0  0  0  0  0  0  0  0  0
   -1.5000   14.7200   -2.3320 N   0  0  0  0  0  0  0  0  0  0  0  0
   -2.9580   14.8800   -2.4650 C   0  0  0  0  0  0  0  0  0  0  0  0
   -0.1770   14.7580   -0.3030 N   0  0  0  0  0  0  0  0  0  0  0  0
   -0.9010   13.9310   -3.4400 C   0  0  0  0  0  0  0  0  0  0  0  0
   -1.0560   12.3990   -3.3050 C   0  0  0  0  0  0  0  0  0  0  0  0
   -0.9170   11.6060   -4.6230 C   0  0  0  0  0  0  0  0  0  0  0  0
   -1.2550   10.1210   -4.4910 C   0  0  0  0  0  0  0  0  0  0  0  0
   -1.7680    9.4380   -5.7760 C   0  0  0  0  0  0  0  0  0  0  0  0
   -0.7260    8.7660   -6.6940 C   0  0  1  0  0  0  0  0  0  0  0  0
   -0.8190    7.2580   -6.8530 C   0  0  0  0  0  0  0  0  0  0  0  0
   -0.4050    9.5170   -7.9100 N   0  0  0  0  0  0  0  0  0  0  0  0
    0.7350    9.4240   -8.6650 C   0  0  0  0  0  0  0  0  0  0  0  0
   -1.2850   10.4300   -8.3920 N   0  0  0  0  0  0  0  0  0  0  0  0
    0.5810   10.3280   -9.6810 C   0  0  0  0  0  0  0  0  0  0  0  0
   -0.6690   10.9220   -9.4760 C   0  0  0  0  0  0  0  0  0  0  0  0
    1.4720   10.5700  -10.6550 N   0  0  0  0  0  0  0  0  0  0  0  0
  2  1  1  6
  2  3  1  0
  2  4  1  0
  3  5  1  0
  3  6  1  6
  4  7  1  0
  5  8  1  0
  6  9  1  0
  8  9  1  0
  5 10  1  1
  7 10  1  0
  8 11  1  0
 11 12  1  0
 12 13  1  0
 13 14  1  0
 14 15  1  0
 15 16  1  0
 16 17  1  6
 16 18  1  0
 18 19  1  0
 18 20  1  0
 19 21  2  0
 20 22  2  0
 21 22  1  0
 21 23  1  0
M  END
>  <%Rank>  (534) 
40.687023

>  <N_hits>  (534) 
2

>  <submitter_name>  (534) 
nan

>  <original SMILES>  (534) 
nan

>  <∆G_unbound>  (534) 
0.460449

>  <∆G_bound>  (534) 
-5.44026

>  <regarded>  (534) 
5CMS_0_O_δ,mArh-EU0906_0_A_α

>  <ref_pdb>  (534) 
nan

>  <smiles>  (534) 
CC(CCCCCN1CNC2C(N)NCNC21)n1cc(N)cn1

>  <submitter_email>  (534) 
nan

>  <disregarded>  (534) 


>  <LE>  (534) 
-0.256553

>  <submitter_institution>  (534) 
nan

>  <ref_mols>  (534) 
5CMS_0_O,mArh-EU0906_0_A

>  <N_constrained_atoms>  (534) 
18.0

>  <ref_url>  (534) 
nan

>  <method>  (534) 
nan

>  <comRMSD>  (534) 
0.543095

>  <N_unconstrained_atoms>  (534) 
5.0

>  <∆∆G>  (534) 
-5.900709

>  <runtime>  (534) 
50.588704

>  <generation_date>  (534) 
nan

$$$$
5CMS_0_R_β-5CB5_0_D_δ
     RDKit          3D

 21 22  0  0  0  0  0  0  0  0999 V2000
   -1.6640   20.5350   -8.0430 O   0  0  0  0  0  0  0  0  0  0  0  0
   -0.5010   19.5790   -7.8080 P   0  0  0  0  0  0  0  0  0  0  0  0
   -1.1500   19.1720   -6.2970 O   0  0  0  0  0  0  0  0  0  0  0  0
    0.5860   20.7620   -7.8570 O   0  0  0  0  0  0  0  0  0  0  0  0
    0.5390   18.4750   -7.6630 O   0  0  0  0  0  0  0  0  0  0  0  0
   -1.6310   17.7420   -5.9630 P   0  0  0  0  0  0  0  0  0  0  0  0
   -0.0490   17.2350   -6.3800 O   0  0  0  0  0  0  0  0  0  0  0  0
   -2.7820   17.8400   -7.0470 O   0  0  0  0  0  0  0  0  0  0  0  0
   -1.8180   17.8100   -4.3980 O   0  0  0  0  0  0  0  0  0  0  0  0
   -1.5370   16.5980   -3.7750 C   0  0  0  0  0  0  0  0  0  0  0  0
   -2.8030   16.0250   -3.1580 C   0  0  0  0  0  0  0  0  0  0  0  0
   -2.7850   14.5980   -2.7870 C   0  0  1  0  0  0  0  0  0  0  0  0
   -1.4320   14.2630   -2.3980 N   0  0  0  0  0  0  0  0  0  0  0  0
   -3.5520   14.5920   -1.5180 N   0  0  0  0  0  0  0  0  0  0  0  0
   -1.3250   14.9550   -1.1790 C   0  0  1  0  0  0  0  0  0  0  0  0
   -2.5910   14.4780   -0.4660 C   0  0  1  0  0  0  0  0  0  0  0  0
   -0.2270   14.5500   -0.3700 N   0  0  0  0  0  0  0  0  0  0  0  0
   -2.7370   15.4080    0.6790 C   0  0  1  0  0  0  0  0  0  0  0  0
   -3.9400   15.1520    1.4630 N   0  0  0  0  0  0  0  0  0  0  0  0
   -0.3400   15.2690    0.8850 C   0  0  0  0  0  0  0  0  0  0  0  0
   -1.6170   15.1210    1.5290 N   0  0  0  0  0  0  0  0  0  0  0  0
  1  2  1  0
  2  3  1  0
  2  4  1  0
  2  5  1  0
  3  6  1  0
  6  7  1  0
  6  8  1  0
  6  9  1  0
  9 10  1  0
 10 11  1  0
 12 11  1  1
 12 13  1  0
 12 14  1  0
 15 13  1  6
 16 14  1  6
 15 16  1  0
 15 17  1  0
 16 18  1  0
 18 19  1  1
 17 20  1  0
 18 21  1  0
 20 21  1  0
M  CHG  2   4  -1   8  -1
M  END
>  <%Rank>  (535) 
40.763359

>  <N_hits>  (535) 
2

>  <submitter_name>  (535) 
nan

>  <original SMILES>  (535) 
nan

>  <∆G_unbound>  (535) 
4.304915

>  <∆G_bound>  (535) 
-5.446299

>  <regarded>  (535) 
5CMS_0_R_β,5CB5_0_D_δ

>  <ref_pdb>  (535) 
nan

>  <smiles>  (535) 
NC1NCNC2NC(CCO[PH]([O-])(O)O[PH]([O-])(O)O)NC12

>  <submitter_email>  (535) 
nan

>  <disregarded>  (535) 


>  <LE>  (535) 
-0.464344

>  <submitter_institution>  (535) 
nan

>  <ref_mols>  (535) 
5CMS_0_R,5CB5_0_D

>  <N_constrained_atoms>  (535) 
19.0

>  <ref_url>  (535) 
nan

>  <method>  (535) 
nan

>  <comRMSD>  (535) 
0.753604

>  <N_unconstrained_atoms>  (535) 
2.0

>  <∆∆G>  (535) 
-9.751214

>  <runtime>  (535) 
31.659161

>  <generation_date>  (535) 
nan

$$$$
5L9K_0_B_α-mArh-x0950_1_A_α
     RDKit          3D

 22 22  0  0  0  0  0  0  0  0999 V2000
   -1.9250   22.0010   -8.1870 C   0  0  0  0  0  0  0  0  0  0  0  0
   -3.4270   22.1230   -8.3850 C   0  0  1  0  0  0  0  0  0  0  0  0
   -4.1150   21.3710   -7.3420 N   0  0  0  0  0  0  0  0  0  0  0  0
   -3.9790   23.5630   -8.2260 C   0  0  1  0  0  0  0  0  0  0  0  0
   -4.8050   24.0430   -9.2840 O   0  0  0  0  0  0  0  0  0  0  0  0
   -3.3070   20.8170   -6.2670 C   0  0  0  0  0  0  0  0  0  0  0  0
   -5.3010   22.0960   -6.9320 C   0  0  1  0  0  0  0  0  0  0  0  0
   -4.7610   23.5110   -6.9030 C   0  0  2  0  0  0  0  0  0  0  0  0
   -6.3710   21.9910   -7.8630 O   0  0  0  0  0  0  0  0  0  0  0  0
   -5.8540   24.4290   -6.8740 O   0  0  0  0  0  0  0  0  0  0  0  0
   -2.5140   19.5630   -6.6720 C   0  0  0  0  0  0  0  0  0  0  0  0
   -1.3010   19.1840   -5.8430 C   0  0  0  0  0  0  0  0  0  0  0  0
   -0.7640   17.8030   -6.1600 C   0  0  0  0  0  0  0  0  0  0  0  0
    0.0130   17.1830   -5.0020 C   0  0  0  0  0  0  0  0  0  0  0  0
   -0.5770   15.8470   -4.5350 C   0  0  0  0  0  0  0  0  0  0  0  0
    0.3710   14.9170   -3.7720 C   0  0  0  0  0  0  0  0  0  0  0  0
    1.3380   14.0990   -4.6440 C   0  0  0  0  0  0  0  0  0  0  0  0
    1.3820   12.5820   -4.4520 C   0  0  2  0  0  0  0  0  0  0  0  0
    0.5900   11.8990   -5.4330 O   0  0  0  0  0  0  0  0  0  0  0  0
    0.9870   12.0900   -3.0560 C   0  0  0  0  0  0  0  0  0  0  0  0
    0.3480   11.0790   -2.8170 O   0  0  0  0  0  0  0  0  0  0  0  0
    1.4320   12.9200   -2.0850 O   0  0  0  0  0  0  0  0  0  0  0  0
  2  1  1  1
  2  3  1  0
  2  4  1  0
  4  5  1  6
  3  6  1  0
  3  7  1  0
  4  8  1  0
  7  8  1  0
  7  9  1  6
  8 10  1  6
  6 11  1  0
 11 12  1  0
 12 13  1  0
 13 14  1  0
 14 15  1  0
 15 16  1  0
 16 17  1  0
 17 18  1  0
 18 19  1  6
 18 20  1  0
 20 21  2  0
 20 22  1  0
M  END
>  <%Rank>  (536) 
40.839695

>  <N_hits>  (536) 
2

>  <submitter_name>  (536) 
nan

>  <original SMILES>  (536) 
nan

>  <∆G_unbound>  (536) 
1.897159

>  <∆G_bound>  (536) 
-10.944791

>  <regarded>  (536) 
5L9K_0_B_α,mArh-x0950_1_A_α

>  <ref_pdb>  (536) 
nan

>  <smiles>  (536) 
CC1C(O)C(O)C(O)N1CCCCCCCC[C@H](O)C(=O)O

>  <submitter_email>  (536) 
nan

>  <disregarded>  (536) 


>  <LE>  (536) 
-0.583725

>  <submitter_institution>  (536) 
nan

>  <ref_mols>  (536) 
5L9K_0_B,mArh-x0950_1_A

>  <N_constrained_atoms>  (536) 
15.0

>  <ref_url>  (536) 
nan

>  <method>  (536) 
nan

>  <comRMSD>  (536) 
0.545849

>  <N_unconstrained_atoms>  (536) 
7.0

>  <∆∆G>  (536) 
-12.84195

>  <runtime>  (536) 
30.431734

>  <generation_date>  (536) 
nan

$$$$
mArh-5dus_0_A_γ-5CB5_0_E_β
     RDKit          3D

 16 16  0  0  0  0  0  0  0  0999 V2000
   -1.9450   13.2640   -3.9750 O   0  0  0  0  0  0  0  0  0  0  0  0
   -0.6320   13.7180   -3.8920 C   0  0  2  0  0  0  0  0  0  0  0  0
   -0.3960   14.6760   -2.7280 C   0  0  0  0  0  0  0  0  0  0  0  0
   -0.2430   14.5330   -5.0950 C   0  0  2  0  0  0  0  0  0  0  0  0
    1.0840   14.1990   -5.3670 O   0  0  0  0  0  0  0  0  0  0  0  0
    0.2170   15.8000   -3.3180 O   0  0  0  0  0  0  0  0  0  0  0  0
   -0.4400   15.8920   -4.5320 C   0  0  1  0  0  0  0  0  0  0  0  0
   -0.1210   17.1660   -5.3700 C   0  0  0  0  0  0  0  0  0  0  0  0
   -1.5810   18.1090   -5.7290 P   0  0  0  0  0  0  0  0  0  0  0  0
   -1.1450   19.3610   -6.5280 O   0  0  0  0  0  0  0  0  0  0  0  0
   -2.5790   17.7550   -7.0470 O   0  0  0  0  0  0  0  0  0  0  0  0
   -2.1680   19.1410   -4.6680 O   0  0  0  0  0  0  0  0  0  0  0  0
   -0.0990   19.5670   -7.7110 P   0  0  0  0  0  0  0  0  0  0  0  0
   -1.1140   20.1590   -8.6910 O   0  0  0  0  0  0  0  0  0  0  0  0
    0.7820   20.9940   -7.8380 O   0  0  0  0  0  0  0  0  0  0  0  0
    0.1690   18.3780   -8.7950 O   0  0  0  0  0  0  0  0  0  0  0  0
  2  1  1  6
  2  3  1  0
  2  4  1  0
  4  5  1  1
  3  6  1  0
  4  7  1  0
  6  7  1  0
  7  8  1  6
  8  9  1  0
  9 10  1  0
  9 11  1  0
  9 12  1  0
 10 13  1  0
 13 14  1  0
 13 15  1  0
 13 16  1  0
M  CHG  2  11  -1  15  -1
M  END
>  <%Rank>  (537) 
40.916031

>  <N_hits>  (537) 
2

>  <submitter_name>  (537) 
nan

>  <original SMILES>  (537) 
nan

>  <∆G_unbound>  (537) 
0.683631

>  <∆G_bound>  (537) 
-7.358039

>  <regarded>  (537) 
mArh-5dus_0_A_γ,5CB5_0_E_β

>  <ref_pdb>  (537) 
nan

>  <smiles>  (537) 
[O-][PH](O)(O)O[PH]([O-])(O)CC1OCC(O)C1O

>  <submitter_email>  (537) 
nan

>  <disregarded>  (537) 


>  <LE>  (537) 
-0.502604

>  <submitter_institution>  (537) 
nan

>  <ref_mols>  (537) 
mArh-5dus_0_A,5CB5_0_E

>  <N_constrained_atoms>  (537) 
16.0

>  <ref_url>  (537) 
nan

>  <method>  (537) 
nan

>  <comRMSD>  (537) 
0.762491

>  <N_unconstrained_atoms>  (537) 
0.0

>  <∆∆G>  (537) 
-8.04167

>  <runtime>  (537) 
39.005843

>  <generation_date>  (537) 
nan

$$$$
5CMS_0_M_δ-5CMS_0_F_β
     RDKit          3D

 21 22  0  0  0  0  0  0  0  0999 V2000
   -3.7330   15.8660    1.3010 N   0  0  0  0  0  0  0  0  0  0  0  0
   -2.6730   14.9110    1.0970 C   0  0  1  0  0  0  0  0  0  0  0  0
   -2.7000   14.2650   -0.2660 C   0  0  2  0  0  0  0  0  0  0  0  0
   -1.4130   15.6120    1.1250 N   0  0  0  0  0  0  0  0  0  0  0  0
   -1.3240   14.5430   -0.8870 C   0  0  2  0  0  0  0  0  0  0  0  0
   -3.5840   14.7590   -1.2570 N   0  0  0  0  0  0  0  0  0  0  0  0
   -0.2920   14.7240    1.1160 C   0  0  0  0  0  0  0  0  0  0  0  0
   -1.5960   13.9940   -2.1420 N   0  0  0  0  0  0  0  0  0  0  0  0
   -2.7620   14.7410   -2.4760 C   0  0  2  0  0  0  0  0  0  0  0  0
   -0.3390   13.9070   -0.0890 N   0  0  0  0  0  0  0  0  0  0  0  0
   -2.1680   16.0690   -2.7280 C   0  0  0  0  0  0  0  0  0  0  0  0
   -2.2710   16.4910   -4.1740 C   0  0  0  0  0  0  0  0  0  0  0  0
   -1.9570   17.8110   -4.3560 O   0  0  0  0  0  0  0  0  0  0  0  0
   -1.9220   18.3010   -5.8860 P   0  0  0  0  0  0  0  0  0  0  0  0
   -1.1870   19.6540   -6.4570 O   0  0  0  0  0  0  0  0  0  0  0  0
   -0.7100   17.4550   -6.2450 O   0  0  0  0  0  0  0  0  0  0  0  0
   -2.8330   17.4120   -6.9350 O   0  0  0  0  0  0  0  0  0  0  0  0
   -0.4710   19.3670   -7.7310 P   0  0  0  0  0  0  0  0  0  0  0  0
   -1.5330   20.3070   -8.5890 O   0  0  0  0  0  0  0  0  0  0  0  0
    0.8930   20.1420   -7.2900 O   0  0  0  0  0  0  0  0  0  0  0  0
    0.2390   18.8580   -8.9440 O   0  0  0  0  0  0  0  0  0  0  0  0
  2  1  1  6
  2  3  1  0
  2  4  1  0
  3  5  1  0
  3  6  1  6
  4  7  1  0
  5  8  1  6
  6  9  1  0
  8  9  1  0
  5 10  1  0
  7 10  1  0
  9 11  1  1
 11 12  1  0
 12 13  1  0
 13 14  1  0
 14 15  1  0
 14 16  1  0
 14 17  1  0
 15 18  1  0
 18 19  1  0
 18 20  1  0
 18 21  1  0
M  CHG  2  17  -1  20  -1
M  END
>  <%Rank>  (538) 
40.992366

>  <N_hits>  (538) 
2

>  <submitter_name>  (538) 
nan

>  <original SMILES>  (538) 
nan

>  <∆G_unbound>  (538) 
2.344748

>  <∆G_bound>  (538) 
-6.115191

>  <regarded>  (538) 
5CMS_0_M_δ,5CMS_0_F_β

>  <ref_pdb>  (538) 
nan

>  <smiles>  (538) 
NC1NCNC2NC(CCO[PH]([O-])(O)O[PH]([O-])(O)O)NC12

>  <submitter_email>  (538) 
nan

>  <disregarded>  (538) 


>  <LE>  (538) 
-0.402854

>  <submitter_institution>  (538) 
nan

>  <ref_mols>  (538) 
5CMS_0_M,5CMS_0_F

>  <N_constrained_atoms>  (538) 
19.0

>  <ref_url>  (538) 
nan

>  <method>  (538) 
nan

>  <comRMSD>  (538) 
0.724234

>  <N_unconstrained_atoms>  (538) 
2.0

>  <∆∆G>  (538) 
-8.459939

>  <runtime>  (538) 
31.006078

>  <generation_date>  (538) 
nan

$$$$
5CB5_0_A_α-5CMS_0_E_β
     RDKit          3D

 17 17  0  0  0  0  0  0  0  0999 V2000
   -2.1800   21.2420   -7.3830 C   0  0  0  0  0  0  0  0  0  0  0  0
   -0.8150   20.2380   -7.8990 P   0  0  0  0  0  0  0  0  0  0  0  0
   -1.2170   18.8010   -7.4450 O   0  0  0  0  0  0  0  0  0  0  0  0
   -3.1780   21.7110   -8.4700 C   0  0  1  0  0  0  0  0  0  0  0  0
    0.6100   20.0890   -7.1770 O   0  0  0  0  0  0  0  0  0  0  0  0
   -0.9120   19.5020   -9.3520 O   0  0  0  0  0  0  0  0  0  0  0  0
   -4.4320   21.1620   -8.3260 O   0  0  0  0  0  0  0  0  0  0  0  0
   -3.5360   23.1990   -8.5120 C   0  0  1  0  0  0  0  0  0  0  0  0
   -4.0950   23.4890   -9.7530 O   0  0  0  0  0  0  0  0  0  0  0  0
   -1.5810   18.2940   -5.9340 P   0  0  0  0  0  0  0  0  0  0  0  0
   -5.2650   21.9560   -7.5590 C   0  0  2  0  0  0  0  0  0  0  0  0
   -4.7080   23.3300   -7.5480 C   0  0  2  0  0  0  0  0  0  0  0  0
   -5.4580   21.5510   -6.2370 O   0  0  0  0  0  0  0  0  0  0  0  0
   -5.6160   24.2060   -8.1930 O   0  0  0  0  0  0  0  0  0  0  0  0
   -1.0180   16.8320   -5.3160 O   0  0  0  0  0  0  0  0  0  0  0  0
   -2.7460   17.5190   -6.5590 O   0  0  0  0  0  0  0  0  0  0  0  0
   -2.3630   19.2840   -4.9590 O   0  0  0  0  0  0  0  0  0  0  0  0
  1  2  1  0
  2  3  1  0
  4  1  1  1
  2  5  1  0
  2  6  1  0
  4  7  1  0
  4  8  1  0
  8  9  1  6
  3 10  1  0
  7 11  1  0
  8 12  1  0
 11 12  1  0
 11 13  1  1
 12 14  1  6
 10 15  1  0
 10 16  1  0
 10 17  1  0
M  CHG  2   5  -1  16  -1
M  END
>  <%Rank>  (539) 
41.068702

>  <N_hits>  (539) 
2

>  <submitter_name>  (539) 
nan

>  <original SMILES>  (539) 
nan

>  <∆G_unbound>  (539) 
1.818629

>  <∆G_bound>  (539) 
-6.809318

>  <regarded>  (539) 
5CB5_0_A_α,5CMS_0_E_β

>  <ref_pdb>  (539) 
nan

>  <smiles>  (539) 
[O-][PH](O)(O)O[PH]([O-])(O)CC1OC(O)C(O)C1O

>  <submitter_email>  (539) 
nan

>  <disregarded>  (539) 


>  <LE>  (539) 
-0.507526

>  <submitter_institution>  (539) 
nan

>  <ref_mols>  (539) 
5CB5_0_A,5CMS_0_E

>  <N_constrained_atoms>  (539) 
17.0

>  <ref_url>  (539) 
nan

>  <method>  (539) 
nan

>  <comRMSD>  (539) 
0.788658

>  <N_unconstrained_atoms>  (539) 
0.0

>  <∆∆G>  (539) 
-8.627947

>  <runtime>  (539) 
33.217964

>  <generation_date>  (539) 
nan

$$$$
mArh-x0849_0_A_α-3EW5_0_C_α
     RDKit          3D

 26 27  0  0  0  0  0  0  0  0999 V2000
   -3.3530   15.3620   -3.0160 Br  0  0  0  0  0  0  0  0  0  0  0  0
   -3.3820   15.2600   -1.1230 C   0  0  0  0  0  0  0  0  0  0  0  0
   -2.2560   15.0370   -0.4130 C   0  0  0  0  0  0  0  0  0  0  0  0
   -4.6070   15.4160   -0.4800 C   0  0  0  0  0  0  0  0  0  0  0  0
   -2.3700   14.9560    0.9840 C   0  0  0  0  0  0  0  0  0  0  0  0
   -4.6590   15.3320    0.8870 C   0  0  0  0  0  0  0  0  0  0  0  0
   -0.9950   14.8800   -0.9920 C   0  0  0  0  0  0  0  0  0  0  0  0
   -0.7800   14.9390   -2.4750 C   0  0  0  0  0  0  0  0  0  0  0  0
   -3.5600   15.1090    1.5710 N   0  0  0  0  0  0  0  0  0  0  0  0
   -1.3710   14.7340    1.7520 N   0  0  0  0  0  0  0  0  0  0  0  0
    0.0410   14.6520   -0.0870 C   0  0  0  0  0  0  0  0  0  0  0  0
   -0.2680   16.3220   -2.9950 C   0  0  0  0  0  0  0  0  0  0  0  0
   -0.1400   14.5790    1.2560 C   0  0  0  0  0  0  0  0  0  0  0  0
   -1.0440   16.7160   -4.1980 C   0  0  0  0  0  0  0  0  0  0  0  0
   -0.4130   17.5170   -5.2820 C   0  0  0  0  0  0  0  0  0  0  0  0
   -1.2000   18.0870   -6.4130 C   0  0  0  0  0  0  0  0  0  0  0  0
   -0.5070   18.3470   -7.5500 O   0  0  0  0  0  0  0  0  0  0  0  0
   -0.4940   20.0440   -7.9320 P   0  0  0  0  0  0  0  0  0  0  0  0
   -1.8980   20.7260   -8.2360 O   0  0  0  0  0  0  0  0  0  0  0  0
    0.9060   20.8360   -7.7480 O   0  0  0  0  0  0  0  0  0  0  0  0
   -0.8030   20.2210   -6.5050 O   0  0  0  0  0  0  0  0  0  0  0  0
   -2.4450   21.6840   -7.3820 C   0  0  0  0  0  0  0  0  0  0  0  0
   -3.9670   21.7320   -7.8620 C   0  0  2  0  0  0  0  0  0  0  0  0
   -4.1160   22.9770   -8.6380 C   0  0  0  0  0  0  0  0  0  0  0  0
   -4.5550   22.0120   -6.5450 O   0  0  0  0  0  0  0  0  0  0  0  0
   -4.7150   22.7290   -9.8920 O   0  0  0  0  0  0  0  0  0  0  0  0
  1  2  1  0
  2  3  2  0
  2  4  1  0
  3  5  1  0
  4  6  2  0
  3  7  1  0
  7  8  1  0
  5  9  2  0
  6  9  1  0
  5 10  1  0
  7 11  2  0
  8 12  1  0
 10 13  2  0
 11 13  1  0
 12 14  1  0
 14 15  1  0
 15 16  1  0
 16 17  1  0
 17 18  1  0
 18 19  1  0
 18 20  1  0
 18 21  1  0
 19 22  1  0
 22 23  1  0
 23 24  1  0
 23 25  1  1
 24 26  1  0
M  CHG  1  21  -1
M  END
>  <%Rank>  (540) 
41.145038

>  <N_hits>  (540) 
2

>  <submitter_name>  (540) 
nan

>  <original SMILES>  (540) 
nan

>  <∆G_unbound>  (540) 
2.203473

>  <∆G_bound>  (540) 
-11.083679

>  <regarded>  (540) 
mArh-x0849_0_A_α,3EW5_0_C_α

>  <ref_pdb>  (540) 
nan

>  <smiles>  (540) 
[O-][PH](O)(OCCCCCc1ccnc2nccc(Br)c12)OC[C@@H](O)CO

>  <submitter_email>  (540) 
nan

>  <disregarded>  (540) 


>  <LE>  (540) 
-0.511044

>  <submitter_institution>  (540) 
nan

>  <ref_mols>  (540) 
mArh-x0849_0_A,3EW5_0_C

>  <N_constrained_atoms>  (540) 
21.0

>  <ref_url>  (540) 
nan

>  <method>  (540) 
nan

>  <comRMSD>  (540) 
0.75173

>  <N_unconstrained_atoms>  (540) 
5.0

>  <∆∆G>  (540) 
-13.287152

>  <runtime>  (540) 
38.689368

>  <generation_date>  (540) 
nan

$$$$
5CB5_0_H_β-5CB5_0_L_β
     RDKit          3D

  9  8  0  0  0  0  0  0  0  0999 V2000
   -1.6560   20.9610   -8.4130 O   0  0  0  0  0  0  0  0  0  0  0  0
   -0.3000   20.1550   -8.0820 P   0  0  0  0  0  0  0  0  0  0  0  0
   -0.5700   19.6710   -6.6840 O   0  0  0  0  0  0  0  0  0  0  0  0
    1.0580   20.9570   -7.5660 O   0  0  0  0  0  0  0  0  0  0  0  0
   -0.1540   18.5810   -8.6480 O   0  0  0  0  0  0  0  0  0  0  0  0
   -1.6280   18.5630   -6.1150 P   0  0  0  0  0  0  0  0  0  0  0  0
   -0.5930   17.4590   -6.2070 O   0  0  0  0  0  0  0  0  0  0  0  0
   -2.6690   17.7370   -7.0410 O   0  0  0  0  0  0  0  0  0  0  0  0
   -1.7830   18.4130   -4.4890 O   0  0  0  0  0  0  0  0  0  0  0  0
  1  2  1  0
  2  3  1  0
  2  4  1  0
  2  5  1  0
  3  6  1  0
  6  7  1  0
  6  8  1  0
  6  9  1  0
M  CHG  2   4  -1   8  -1
M  END
>  <%Rank>  (541) 
41.221374

>  <N_hits>  (541) 
2

>  <submitter_name>  (541) 
nan

>  <original SMILES>  (541) 
nan

>  <∆G_unbound>  (541) 
0.654534

>  <∆G_bound>  (541) 
-5.548784

>  <regarded>  (541) 
5CB5_0_H_β,5CB5_0_L_β

>  <ref_pdb>  (541) 
nan

>  <smiles>  (541) 
[O-][PH](O)(O)O[PH]([O-])(O)O

>  <submitter_email>  (541) 
nan

>  <disregarded>  (541) 


>  <LE>  (541) 
-0.689258

>  <submitter_institution>  (541) 
nan

>  <ref_mols>  (541) 
5CB5_0_H,5CB5_0_L

>  <N_constrained_atoms>  (541) 
9.0

>  <ref_url>  (541) 
nan

>  <method>  (541) 
nan

>  <comRMSD>  (541) 
0.65793

>  <N_unconstrained_atoms>  (541) 
0.0

>  <∆∆G>  (541) 
-6.203318

>  <runtime>  (541) 
22.64294

>  <generation_date>  (541) 
nan

$$$$
6WOJ_0_D_β-5CB5_0_K_α
     RDKit          3D

 17 17  0  0  0  0  0  0  0  0999 V2000
   -1.7830   21.0890   -8.7510 O   0  0  0  0  0  0  0  0  0  0  0  0
   -0.5520   20.2710   -7.8980 P   0  0  0  0  0  0  0  0  0  0  0  0
   -0.9190   19.7160   -6.3910 O   0  0  0  0  0  0  0  0  0  0  0  0
   -2.7490   21.6930   -7.9160 C   0  0  2  0  0  0  0  0  0  0  0  0
   -0.0980   21.6190   -7.3520 O   0  0  0  0  0  0  0  0  0  0  0  0
   -0.8750   18.9210   -8.5170 O   0  0  0  0  0  0  0  0  0  0  0  0
   -3.9880   21.1650   -8.0450 O   0  0  0  0  0  0  0  0  0  0  0  0
   -3.1940   23.1270   -8.3220 C   0  0  1  0  0  0  0  0  0  0  0  0
   -1.0620   18.2410   -5.9390 P   0  0  0  0  0  0  0  0  0  0  0  0
   -3.8460   23.0830   -9.5430 O   0  0  0  0  0  0  0  0  0  0  0  0
   -4.8680   21.9080   -7.2920 C   0  0  2  0  0  0  0  0  0  0  0  0
   -4.2930   23.2940   -7.2600 C   0  0  2  0  0  0  0  0  0  0  0  0
   -1.0070   16.7940   -5.4330 O   0  0  0  0  0  0  0  0  0  0  0  0
   -1.3800   18.7730   -4.4250 O   0  0  0  0  0  0  0  0  0  0  0  0
   -2.3750   17.9590   -6.8870 O   0  0  0  0  0  0  0  0  0  0  0  0
   -5.1360   21.4360   -6.0090 O   0  0  0  0  0  0  0  0  0  0  0  0
   -5.2240   24.1980   -7.7860 O   0  0  0  0  0  0  0  0  0  0  0  0
  1  2  1  0
  2  3  1  0
  4  1  1  6
  2  5  1  0
  2  6  1  0
  4  7  1  0
  4  8  1  0
  3  9  1  0
  8 10  1  6
  7 11  1  0
  8 12  1  0
 11 12  1  0
  9 13  1  0
  9 14  1  0
  9 15  1  0
 11 16  1  1
 12 17  1  6
M  CHG  2   5  -1  14  -1
M  END
>  <%Rank>  (542) 
41.29771

>  <N_hits>  (542) 
2

>  <submitter_name>  (542) 
nan

>  <original SMILES>  (542) 
nan

>  <∆G_unbound>  (542) 
0.972863

>  <∆G_bound>  (542) 
-7.290979

>  <regarded>  (542) 
6WOJ_0_D_β,5CB5_0_K_α

>  <ref_pdb>  (542) 
nan

>  <smiles>  (542) 
[O-][PH](O)(O)O[PH]([O-])(O)OC1OC(O)C(O)C1O

>  <submitter_email>  (542) 
nan

>  <disregarded>  (542) 


>  <LE>  (542) 
-0.486108

>  <submitter_institution>  (542) 
nan

>  <ref_mols>  (542) 
6WOJ_0_D,5CB5_0_K

>  <N_constrained_atoms>  (542) 
17.0

>  <ref_url>  (542) 
nan

>  <method>  (542) 
nan

>  <comRMSD>  (542) 
0.780307

>  <N_unconstrained_atoms>  (542) 
0.0

>  <∆∆G>  (542) 
-8.263842

>  <runtime>  (542) 
28.451043

>  <generation_date>  (542) 
nan

$$$$
5CB5_0_H_α-mArh-x0766_0_A_α
     RDKit          3D

 27 29  0  0  0  0  0  0  0  0999 V2000
   -2.0750   21.5290   -8.5080 C   0  0  0  0  0  0  0  0  0  0  0  0
   -3.4310   22.0520   -8.9760 C   0  0  1  0  0  0  0  0  0  0  0  0
   -4.4750   21.3460   -8.3520 O   0  0  0  0  0  0  0  0  0  0  0  0
   -3.7320   23.4780   -8.5490 C   0  0  1  0  0  0  0  0  0  0  0  0
   -4.6400   24.0920   -9.4540 O   0  0  0  0  0  0  0  0  0  0  0  0
   -4.3590   21.7900   -7.0120 C   0  0  2  0  0  0  0  0  0  0  0  0
   -4.3490   23.3170   -7.1440 C   0  0  2  0  0  0  0  0  0  0  0  0
   -3.0630   21.4210   -6.5560 O   0  0  0  0  0  0  0  0  0  0  0  0
   -5.6770   23.8940   -7.1270 O   0  0  0  0  0  0  0  0  0  0  0  0
   -2.8610   20.3860   -5.6000 C   0  0  0  0  0  0  0  0  0  0  0  0
   -2.3670   19.0060   -6.1690 C   0  0  0  0  0  0  0  0  0  0  0  0
   -1.6760   18.0090   -5.1810 C   0  0  0  0  0  0  0  0  0  0  0  0
   -1.9540   16.4850   -5.3980 C   0  0  0  0  0  0  0  0  0  0  0  0
   -2.9200   15.6500   -4.4820 C   0  0  0  0  0  0  0  0  0  0  0  0
   -2.5640   15.2280   -3.0450 C   0  0  0  0  0  0  0  0  0  0  0  0
   -1.3800   14.7910   -2.4250 C   0  0  0  0  0  0  0  0  0  0  0  0
   -3.8500   15.2830   -1.8910 S   0  0  0  0  0  0  0  0  0  0  0  0
   -0.0250   14.6050   -3.0540 C   0  0  1  0  0  0  0  0  0  0  0  0
   -1.5870   14.5260   -1.0250 C   0  0  0  0  0  0  0  0  0  0  0  0
   -2.8700   14.7530   -0.6110 C   0  0  0  0  0  0  0  0  0  0  0  0
    0.1420   13.3060   -3.8510 C   0  0  2  0  0  0  0  0  0  0  0  0
    0.4350   15.7250   -3.9570 C   0  0  0  0  0  0  0  0  0  0  0  0
    0.5670   12.2570   -2.8500 C   0  0  0  0  0  0  0  0  0  0  0  0
    1.2390   13.6040   -4.8810 C   0  0  0  0  0  0  0  0  0  0  0  0
    1.5240   15.1050   -4.7870 C   0  0  0  0  0  0  0  0  0  0  0  0
    1.4430   12.3800   -2.0240 O   0  0  0  0  0  0  0  0  0  0  0  0
   -0.1280   11.1070   -2.9150 O   0  0  0  0  0  0  0  0  0  0  0  0
  2  1  1  1
  2  3  1  0
  2  4  1  0
  4  5  1  6
  3  6  1  0
  4  7  1  0
  6  7  1  0
  6  8  1  6
  7  9  1  6
  8 10  1  0
 10 11  1  0
 11 12  1  0
 12 13  1  0
 13 14  1  0
 14 15  1  0
 15 16  2  0
 15 17  1  0
 18 16  1  6
 16 19  1  0
 17 20  1  0
 19 20  2  0
 18 21  1  0
 18 22  1  0
 21 23  1  1
 21 24  1  0
 22 25  1  0
 24 25  1  0
 23 26  2  0
 23 27  1  0
M  END
>  <%Rank>  (543) 
41.374046

>  <N_hits>  (543) 
2

>  <submitter_name>  (543) 
nan

>  <original SMILES>  (543) 
nan

>  <∆G_unbound>  (543) 
0.256126

>  <∆G_bound>  (543) 
-10.687161

>  <regarded>  (543) 
5CB5_0_H_α,mArh-x0766_0_A_α

>  <ref_pdb>  (543) 
nan

>  <smiles>  (543) 
CC1OC(OCCCCCc2sccc2C2CCCC2C(=O)O)C(O)C1O

>  <submitter_email>  (543) 
nan

>  <disregarded>  (543) 


>  <LE>  (543) 
-0.405307

>  <submitter_institution>  (543) 
nan

>  <ref_mols>  (543) 
5CB5_0_H,mArh-x0766_0_A

>  <N_constrained_atoms>  (543) 
22.0

>  <ref_url>  (543) 
nan

>  <method>  (543) 
nan

>  <comRMSD>  (543) 
0.723548

>  <N_unconstrained_atoms>  (543) 
5.0

>  <∆∆G>  (543) 
-10.943287

>  <runtime>  (543) 
68.275629

>  <generation_date>  (543) 
nan

$$$$
5LW0_0_A_δ-mArh-x0962_1_A_α
     RDKit          3D

 16 18  0  0  0  0  0  0  0  0999 V2000
   -3.8780   15.4410    1.9570 N   0  0  0  0  0  0  0  0  0  0  0  0
   -2.8900   14.5520    1.4040 C   0  0  1  0  0  0  0  0  0  0  0  0
   -3.0410   14.3190   -0.1100 C   0  0  2  0  0  0  0  0  0  0  0  0
   -1.6690   15.2500    1.6430 N   0  0  0  0  0  0  0  0  0  0  0  0
   -1.6640   13.8780   -0.6850 C   0  0  1  0  0  0  0  0  0  0  0  0
   -3.5140   15.2950   -1.0870 N   0  0  0  0  0  0  0  0  0  0  0  0
   -0.5160   14.5170    1.2390 C   0  0  0  0  0  0  0  0  0  0  0  0
   -1.7290   14.1200   -2.1110 N   0  0  0  0  0  0  0  0  0  0  0  0
   -3.0390   14.7240   -2.3460 C   0  0  0  0  0  0  0  0  0  0  0  0
   -0.5130   14.5940   -0.1900 N   0  0  0  0  0  0  0  0  0  0  0  0
   -4.9380   15.5790   -1.2000 C   0  0  0  0  0  0  0  0  0  0  0  0
   -5.8540   15.0170   -0.1860 C   0  0  0  0  0  0  0  0  0  0  0  0
   -5.5860   14.8560    1.1450 N   0  0  0  0  0  0  0  0  0  0  0  0
   -7.1430   14.5600   -0.3380 C   0  0  0  0  0  0  0  0  0  0  0  0
   -6.7020   14.3230    1.7290 C   0  0  0  0  0  0  0  0  0  0  0  0
   -7.6590   14.1340    0.8520 N   0  0  0  0  0  0  0  0  0  0  0  0
  2  1  1  6
  2  3  1  0
  2  4  1  0
  3  5  1  0
  3  6  1  6
  4  7  1  0
  5  8  1  6
  6  9  1  0
  8  9  1  0
  5 10  1  0
  7 10  1  0
  6 11  1  0
 11 12  1  0
 12 13  1  0
 12 14  2  0
 13 15  1  0
 14 16  1  0
 15 16  2  0
M  END
>  <%Rank>  (544) 
41.450382

>  <N_hits>  (544) 
2

>  <submitter_name>  (544) 
nan

>  <original SMILES>  (544) 
nan

>  <∆G_unbound>  (544) 
1.829875

>  <∆G_bound>  (544) 
-0.145455

>  <regarded>  (544) 
5LW0_0_A_δ,mArh-x0962_1_A_α

>  <ref_pdb>  (544) 
nan

>  <smiles>  (544) 
NC1NCNC2NCN(Cc3cnc[nH]3)C12

>  <submitter_email>  (544) 
nan

>  <disregarded>  (544) 


>  <LE>  (544) 
-0.123458

>  <submitter_institution>  (544) 
nan

>  <ref_mols>  (544) 
5LW0_0_A,mArh-x0962_1_A

>  <N_constrained_atoms>  (544) 
16.0

>  <ref_url>  (544) 
nan

>  <method>  (544) 
nan

>  <comRMSD>  (544) 
0.577815

>  <N_unconstrained_atoms>  (544) 
0.0

>  <∆∆G>  (544) 
-1.97533

>  <runtime>  (544) 
25.376208

>  <generation_date>  (544) 
nan

$$$$
5CMS_0_R_β-5CMS_0_A_δ
     RDKit          3D

 21 22  0  0  0  0  0  0  0  0999 V2000
   -1.4970   21.1280   -7.5550 O   0  0  0  0  0  0  0  0  0  0  0  0
   -0.7250   19.8550   -7.8320 P   0  0  0  0  0  0  0  0  0  0  0  0
   -1.2120   19.2660   -6.3130 O   0  0  0  0  0  0  0  0  0  0  0  0
    0.6700   20.6490   -7.8790 O   0  0  0  0  0  0  0  0  0  0  0  0
   -0.1440   18.5260   -8.3130 O   0  0  0  0  0  0  0  0  0  0  0  0
   -1.6180   17.8020   -6.0910 P   0  0  0  0  0  0  0  0  0  0  0  0
    0.0150   17.4090   -6.4420 O   0  0  0  0  0  0  0  0  0  0  0  0
   -2.6980   17.9290   -7.2240 O   0  0  0  0  0  0  0  0  0  0  0  0
   -1.9850   17.7140   -4.5600 O   0  0  0  0  0  0  0  0  0  0  0  0
   -2.4800   16.4490   -4.3040 C   0  0  0  0  0  0  0  0  0  0  0  0
   -2.2170   15.9870   -2.9000 C   0  0  0  0  0  0  0  0  0  0  0  0
   -2.8440   14.6840   -2.5930 C   0  0  1  0  0  0  0  0  0  0  0  0
   -1.7810   13.8880   -2.0370 N   0  0  0  0  0  0  0  0  0  0  0  0
   -3.7390   14.9430   -1.4390 N   0  0  0  0  0  0  0  0  0  0  0  0
   -1.5710   14.6260   -0.8590 C   0  0  1  0  0  0  0  0  0  0  0  0
   -2.9890   14.5530   -0.2830 C   0  0  1  0  0  0  0  0  0  0  0  0
   -0.6740   14.0230    0.0690 N   0  0  0  0  0  0  0  0  0  0  0  0
   -3.0020   15.4990    0.8560 C   0  0  1  0  0  0  0  0  0  0  0  0
   -4.3040   15.5700    1.5200 N   0  0  0  0  0  0  0  0  0  0  0  0
   -0.7230   14.8300    1.2720 C   0  0  0  0  0  0  0  0  0  0  0  0
   -2.0570   14.9680    1.7880 N   0  0  0  0  0  0  0  0  0  0  0  0
  1  2  1  0
  2  3  1  0
  2  4  1  0
  2  5  1  0
  3  6  1  0
  6  7  1  0
  6  8  1  0
  6  9  1  0
  9 10  1  0
 10 11  1  0
 12 11  1  1
 12 13  1  0
 12 14  1  0
 15 13  1  6
 16 14  1  6
 15 16  1  0
 15 17  1  0
 16 18  1  0
 18 19  1  1
 17 20  1  0
 18 21  1  0
 20 21  1  0
M  CHG  2   4  -1   8  -1
M  END
>  <%Rank>  (545) 
41.526718

>  <N_hits>  (545) 
2

>  <submitter_name>  (545) 
nan

>  <original SMILES>  (545) 
nan

>  <∆G_unbound>  (545) 
4.304915

>  <∆G_bound>  (545) 
-6.106509

>  <regarded>  (545) 
5CMS_0_R_β,5CMS_0_A_δ

>  <ref_pdb>  (545) 
nan

>  <smiles>  (545) 
NC1NCNC2NC(CCO[PH]([O-])(O)O[PH]([O-])(O)O)NC12

>  <submitter_email>  (545) 
nan

>  <disregarded>  (545) 


>  <LE>  (545) 
-0.495782

>  <submitter_institution>  (545) 
nan

>  <ref_mols>  (545) 
5CMS_0_R,5CMS_0_A

>  <N_constrained_atoms>  (545) 
19.0

>  <ref_url>  (545) 
nan

>  <method>  (545) 
nan

>  <comRMSD>  (545) 
0.775697

>  <N_unconstrained_atoms>  (545) 
2.0

>  <∆∆G>  (545) 
-10.411424

>  <runtime>  (545) 
26.01672

>  <generation_date>  (545) 
nan

$$$$
6WOJ_0_A_β-5CB5_0_C_δ
     RDKit          3D

 21 22  0  0  0  0  0  0  0  0999 V2000
   -1.6520   20.4970   -8.3970 O   0  0  0  0  0  0  0  0  0  0  0  0
   -0.3930   20.0500   -7.4250 P   0  0  0  0  0  0  0  0  0  0  0  0
   -0.6700   19.2060   -6.0500 O   0  0  0  0  0  0  0  0  0  0  0  0
    1.0540   20.8450   -7.6750 O   0  0  0  0  0  0  0  0  0  0  0  0
    0.0280   18.8910   -8.3580 O   0  0  0  0  0  0  0  0  0  0  0  0
   -1.3150   17.8330   -5.9520 P   0  0  0  0  0  0  0  0  0  0  0  0
    0.1930   17.2010   -6.2950 O   0  0  0  0  0  0  0  0  0  0  0  0
   -1.8070   17.7540   -4.4460 O   0  0  0  0  0  0  0  0  0  0  0  0
   -2.3460   18.2250   -7.1580 O   0  0  0  0  0  0  0  0  0  0  0  0
   -2.2960   16.4980   -4.1920 C   0  0  0  0  0  0  0  0  0  0  0  0
   -2.1640   16.0270   -2.8110 C   0  0  0  0  0  0  0  0  0  0  0  0
   -2.9720   14.8600   -2.4180 C   0  0  1  0  0  0  0  0  0  0  0  0
   -2.0640   13.8650   -1.9620 N   0  0  0  0  0  0  0  0  0  0  0  0
   -3.7940   15.1150   -1.2650 N   0  0  0  0  0  0  0  0  0  0  0  0
   -1.7410   14.2930   -0.6380 C   0  0  2  0  0  0  0  0  0  0  0  0
   -2.7040   15.4890   -0.4220 C   0  0  2  0  0  0  0  0  0  0  0  0
   -0.4550   14.8450   -0.4350 N   0  0  0  0  0  0  0  0  0  0  0  0
   -2.9190   15.6500    0.9980 C   0  0  1  0  0  0  0  0  0  0  0  0
   -4.1030   15.0780    1.5680 N   0  0  0  0  0  0  0  0  0  0  0  0
   -0.5170   15.3780    0.9270 C   0  0  0  0  0  0  0  0  0  0  0  0
   -1.7300   15.1340    1.6230 N   0  0  0  0  0  0  0  0  0  0  0  0
  1  2  1  0
  2  3  1  0
  2  4  1  0
  2  5  1  0
  3  6  1  0
  6  7  1  0
  6  8  1  0
  6  9  1  0
  8 10  1  0
 10 11  1  0
 12 11  1  1
 12 13  1  0
 12 14  1  0
 15 13  1  6
 16 14  1  6
 15 16  1  0
 15 17  1  0
 16 18  1  0
 18 19  1  1
 17 20  1  0
 18 21  1  0
 20 21  1  0
M  CHG  1   4  -1
M  END
>  <%Rank>  (546) 
41.603053

>  <N_hits>  (546) 
2

>  <submitter_name>  (546) 
nan

>  <original SMILES>  (546) 
nan

>  <∆G_unbound>  (546) 
2.968221

>  <∆G_bound>  (546) 
-5.770633

>  <regarded>  (546) 
6WOJ_0_A_β,5CB5_0_C_δ

>  <ref_pdb>  (546) 
nan

>  <smiles>  (546) 
NC1NCNC2NC(CCO[PH](O)(O)O[PH]([O-])(O)O)NC12

>  <submitter_email>  (546) 
nan

>  <disregarded>  (546) 


>  <LE>  (546) 
-0.416136

>  <submitter_institution>  (546) 
nan

>  <ref_mols>  (546) 
6WOJ_0_A,5CB5_0_C

>  <N_constrained_atoms>  (546) 
19.0

>  <ref_url>  (546) 
nan

>  <method>  (546) 
nan

>  <comRMSD>  (546) 
0.738451

>  <N_unconstrained_atoms>  (546) 
2.0

>  <∆∆G>  (546) 
-8.738854

>  <runtime>  (546) 
29.868317

>  <generation_date>  (546) 
nan

$$$$
mArh-x0805_0_A_β-mArh-5cb5_I_0_I_α
     RDKit          3D

 24 25  0  0  0  0  0  0  0  0999 V2000
    0.4790   11.9660   -2.3350 C   0  0  0  0  0  0  0  0  0  0  0  0
    0.3580   10.8680   -3.0960 O   0  0  0  0  0  0  0  0  0  0  0  0
    0.2860   11.9620   -1.1580 O   0  0  0  0  0  0  0  0  0  0  0  0
    0.8450   13.2040   -3.0150 C   0  0  2  0  0  0  0  0  0  0  0  0
   -0.4180   13.9970   -3.2900 C   0  0  0  0  0  0  0  0  0  0  0  0
    1.7820   13.1000   -4.2070 C   0  0  0  0  0  0  0  0  0  0  0  0
    2.1460   14.4470   -4.4900 O   0  0  0  0  0  0  0  0  0  0  0  0
    0.0690   15.3680   -3.5950 C   0  0  0  0  0  0  0  0  0  0  0  0
    0.9320   15.1380   -4.7990 C   0  0  1  0  0  0  0  0  0  0  0  0
    1.0890   16.4190   -5.5350 C   0  0  0  0  0  0  0  0  0  0  0  0
    0.8560   17.7380   -4.8830 C   0  0  0  0  0  0  0  0  0  0  0  0
    0.6890   18.6330   -6.0690 C   0  0  0  0  0  0  0  0  0  0  0  0
   -0.7740   18.8980   -6.3100 C   0  0  0  0  0  0  0  0  0  0  0  0
   -0.9560   19.7810   -7.5110 C   0  0  0  0  0  0  0  0  0  0  0  0
   -2.0790   20.7590   -7.2610 C   0  0  0  0  0  0  0  0  0  0  0  0
   -2.0920   21.7950   -8.3450 C   0  0  0  0  0  0  0  0  0  0  0  0
   -3.4800   21.9910   -8.9350 C   0  0  1  0  0  0  0  0  0  0  0  0
   -4.3720   21.0040   -8.3860 O   0  0  0  0  0  0  0  0  0  0  0  0
   -4.0130   23.3540   -8.5330 C   0  0  1  0  0  0  0  0  0  0  0  0
   -4.8710   23.8860   -9.5410 O   0  0  0  0  0  0  0  0  0  0  0  0
   -5.2500   21.6140   -7.4460 C   0  0  2  0  0  0  0  0  0  0  0  0
   -4.7280   23.0350   -7.2270 C   0  0  2  0  0  0  0  0  0  0  0  0
   -5.1950   20.8820   -6.2440 O   0  0  0  0  0  0  0  0  0  0  0  0
   -5.8170   23.9480   -7.0270 O   0  0  0  0  0  0  0  0  0  0  0  0
  1  2  1  0
  1  3  2  0
  4  1  1  6
  4  5  1  0
  4  6  1  0
  6  7  1  0
  5  8  1  0
  7  9  1  0
  8  9  1  0
  9 10  1  1
 10 11  1  0
 11 12  1  0
 12 13  1  0
 13 14  1  0
 14 15  1  0
 15 16  1  0
 17 16  1  1
 17 18  1  0
 17 19  1  0
 19 20  1  6
 18 21  1  0
 19 22  1  0
 21 22  1  0
 21 23  1  1
 22 24  1  6
M  END
>  <%Rank>  (547) 
41.679389

>  <N_hits>  (547) 
2

>  <submitter_name>  (547) 
nan

>  <original SMILES>  (547) 
nan

>  <∆G_unbound>  (547) 
0.276559

>  <∆G_bound>  (547) 
-12.188426

>  <regarded>  (547) 
mArh-x0805_0_A_β,mArh-5cb5_I_0_I_α

>  <ref_pdb>  (547) 
nan

>  <smiles>  (547) 
O=C(O)C1CCC(CCCCCCCC2OC(O)C(O)C2O)OC1

>  <submitter_email>  (547) 
nan

>  <disregarded>  (547) 


>  <LE>  (547) 
-0.519374

>  <submitter_institution>  (547) 
nan

>  <ref_mols>  (547) 
mArh-x0805_0_A,mArh-5cb5_I_0_I

>  <N_constrained_atoms>  (547) 
18.0

>  <ref_url>  (547) 
nan

>  <method>  (547) 
nan

>  <comRMSD>  (547) 
0.655991

>  <N_unconstrained_atoms>  (547) 
6.0

>  <∆∆G>  (547) 
-12.464985

>  <runtime>  (547) 
43.77926

>  <generation_date>  (547) 
nan

$$$$
mArh-EU0815_0_A_β-mArh-EU0342_0_A_α
     RDKit          3D

 12 12  0  0  0  0  0  0  0  0999 V2000
   -6.3230   15.2120   -2.1210 F   0  0  0  0  0  0  0  0  0  0  0  0
   -5.6710   15.0160   -0.9660 C   0  0  0  0  0  0  0  0  0  0  0  0
   -4.2610   14.9880   -0.9400 C   0  0  0  0  0  0  0  0  0  0  0  0
   -6.4400   14.8420    0.1790 C   0  0  0  0  0  0  0  0  0  0  0  0
   -3.5270   15.1720   -2.2310 C   0  0  0  0  0  0  0  0  0  0  0  0
   -5.8100   14.6390    1.3980 C   0  0  0  0  0  0  0  0  0  0  0  0
   -3.6300   14.7820    0.3160 C   0  0  0  0  0  0  0  0  0  0  0  0
   -2.1540   14.7140    0.6230 C   0  0  0  0  0  0  0  0  0  0  0  0
   -4.4180   14.6120    1.4510 C   0  0  0  0  0  0  0  0  0  0  0  0
   -1.2420   14.7590   -0.4080 N   0  0  0  0  0  0  0  0  0  0  0  0
   -1.8050   14.6260    1.7980 O   0  0  0  0  0  0  0  0  0  0  0  0
    0.1520   14.8960   -0.0670 C   0  0  0  0  0  0  0  0  0  0  0  0
  1  2  1  0
  2  3  2  0
  2  4  1  0
  3  5  1  0
  4  6  2  0
  3  7  1  0
  7  8  1  0
  6  9  1  0
  7  9  2  0
  8 10  1  0
  8 11  2  0
 10 12  1  0
M  END
>  <%Rank>  (548) 
41.755725

>  <N_hits>  (548) 
2

>  <submitter_name>  (548) 
nan

>  <original SMILES>  (548) 
nan

>  <∆G_unbound>  (548) 
0.208839

>  <∆G_bound>  (548) 
-4.71655

>  <regarded>  (548) 
mArh-EU0815_0_A_β,mArh-EU0342_0_A_α

>  <ref_pdb>  (548) 
nan

>  <smiles>  (548) 
CNC(=O)c1cccc(F)c1C

>  <submitter_email>  (548) 
nan

>  <disregarded>  (548) 


>  <LE>  (548) 
-0.410449

>  <submitter_institution>  (548) 
nan

>  <ref_mols>  (548) 
mArh-EU0815_0_A,mArh-EU0342_0_A

>  <N_constrained_atoms>  (548) 
12.0

>  <ref_url>  (548) 
nan

>  <method>  (548) 
nan

>  <comRMSD>  (548) 
0.620657

>  <N_unconstrained_atoms>  (548) 
0.0

>  <∆∆G>  (548) 
-4.925389

>  <runtime>  (548) 
22.083679

>  <generation_date>  (548) 
nan

$$$$
5CB5_0_M_β-mArh-x0962_0_A_α
     RDKit          3D

 19 19  0  0  0  0  0  0  0  0999 V2000
   -1.3220   19.9600   -8.7620 O   0  0  0  0  0  0  0  0  0  0  0  0
   -0.2110   19.3700   -7.7280 P   0  0  0  0  0  0  0  0  0  0  0  0
   -1.0020   19.8020   -6.5380 O   0  0  0  0  0  0  0  0  0  0  0  0
    0.4230   18.7330   -8.9180 O   0  0  0  0  0  0  0  0  0  0  0  0
    1.0370   20.3830   -7.3990 O   0  0  0  0  0  0  0  0  0  0  0  0
   -1.8830   18.6400   -5.8980 P   0  0  0  0  0  0  0  0  0  0  0  0
   -0.8780   17.5050   -5.9840 O   0  0  0  0  0  0  0  0  0  0  0  0
   -2.8900   17.7300   -6.8430 O   0  0  0  0  0  0  0  0  0  0  0  0
   -1.9670   18.4070   -4.2880 O   0  0  0  0  0  0  0  0  0  0  0  0
    0.0840   17.3190   -4.9890 C   0  0  0  0  0  0  0  0  0  0  0  0
   -0.2930   16.4480   -3.8330 C   0  0  0  0  0  0  0  0  0  0  0  0
   -1.6050   15.6680   -4.0130 C   0  0  0  0  0  0  0  0  0  0  0  0
   -2.2950   15.4510   -2.7200 C   0  0  0  0  0  0  0  0  0  0  0  0
   -2.9290   15.3230   -1.6740 C   0  0  0  0  0  0  0  0  0  0  0  0
   -3.7240   15.2790   -0.4760 C   0  0  0  0  0  0  0  0  0  0  0  0
   -3.3450   15.5640    0.7890 N   0  0  0  0  0  0  0  0  0  0  0  0
   -5.0570   14.9350   -0.3780 C   0  0  0  0  0  0  0  0  0  0  0  0
   -4.3740   15.4200    1.6280 C   0  0  0  0  0  0  0  0  0  0  0  0
   -5.4440   15.0240    0.9210 N   0  0  0  0  0  0  0  0  0  0  0  0
  1  2  1  0
  2  3  1  0
  2  4  1  0
  2  5  1  0
  3  6  1  0
  6  7  1  0
  6  8  1  0
  6  9  1  0
  7 10  1  0
 10 11  1  0
 11 12  1  0
 12 13  1  0
 13 14  3  0
 14 15  1  0
 15 16  1  0
 15 17  2  0
 16 18  1  0
 17 19  1  0
 18 19  2  0
M  CHG  2   4  -1   8  -1
M  END
>  <%Rank>  (549) 
41.832061

>  <N_hits>  (549) 
2

>  <submitter_name>  (549) 
nan

>  <original SMILES>  (549) 
nan

>  <∆G_unbound>  (549) 
2.803517

>  <∆G_bound>  (549) 
-8.666607

>  <regarded>  (549) 
5CB5_0_M_β,mArh-x0962_0_A_α

>  <ref_pdb>  (549) 
nan

>  <smiles>  (549) 
[O-][PH](O)(O)O[PH]([O-])(O)OCCCC#Cc1cnc[nH]1

>  <submitter_email>  (549) 
nan

>  <disregarded>  (549) 


>  <LE>  (549) 
-0.603691

>  <submitter_institution>  (549) 
nan

>  <ref_mols>  (549) 
5CB5_0_M,mArh-x0962_0_A

>  <N_constrained_atoms>  (549) 
16.0

>  <ref_url>  (549) 
nan

>  <method>  (549) 
nan

>  <comRMSD>  (549) 
0.728161

>  <N_unconstrained_atoms>  (549) 
3.0

>  <∆∆G>  (549) 
-11.470124

>  <runtime>  (549) 
35.100637

>  <generation_date>  (549) 
nan

$$$$
mArh-EU0844_0_A_α-mArh-x0592_0_A_α
     RDKit          3D

 18 20  0  0  0  0  0  0  0  0999 V2000
   -9.7180   14.5450    1.0230 C   0  0  0  0  0  0  0  0  0  0  0  0
   -9.8600   14.0600    2.4690 C   0  0  0  0  0  0  0  0  0  0  0  0
   -8.8180   14.8320    3.2860 C   0  0  1  0  0  0  0  0  0  0  0  0
   -8.2300   14.6610    0.9820 C   0  0  0  0  0  0  0  0  0  0  0  0
   -7.4970   14.6140   -0.1460 N   0  0  0  0  0  0  0  0  0  0  0  0
   -7.7290   14.8210    2.2670 C   0  0  0  0  0  0  0  0  0  0  0  0
   -9.2840   16.1470    3.4880 O   0  0  0  0  0  0  0  0  0  0  0  0
   -8.4990   14.3070    4.6010 N   0  0  0  0  0  0  0  0  0  0  0  0
   -6.1640   14.7320    0.0190 C   0  0  0  0  0  0  0  0  0  0  0  0
   -6.3790   14.9380    2.4200 C   0  0  0  0  0  0  0  0  0  0  0  0
   -8.4690   15.2460    5.7140 C   0  0  0  0  0  0  0  0  0  0  0  0
   -5.5660   14.8900    1.2950 C   0  0  0  0  0  0  0  0  0  0  0  0
   -5.3330   14.7020   -1.0850 C   0  0  0  0  0  0  0  0  0  0  0  0
   -3.9520   14.8150   -0.9290 C   0  0  0  0  0  0  0  0  0  0  0  0
   -4.1870   14.9980    1.4340 C   0  0  0  0  0  0  0  0  0  0  0  0
   -3.1780   14.7840   -2.0270 F   0  0  0  0  0  0  0  0  0  0  0  0
   -3.3650   14.9570    0.3380 C   0  0  0  0  0  0  0  0  0  0  0  0
   -1.9920   15.0580    0.5530 N   0  0  0  0  0  0  0  0  0  0  0  0
  1  2  1  0
  2  3  1  0
  1  4  1  0
  4  5  1  0
  3  6  1  0
  4  6  2  0
  3  7  1  1
  3  8  1  0
  5  9  2  0
  6 10  1  0
  8 11  1  0
  9 12  1  0
 10 12  2  0
  9 13  1  0
 13 14  2  0
 12 15  1  0
 14 16  1  0
 14 17  1  0
 15 17  2  0
 17 18  1  0
M  END
>  <%Rank>  (550) 
41.908397

>  <N_hits>  (550) 
2

>  <submitter_name>  (550) 
nan

>  <original SMILES>  (550) 
nan

>  <∆G_unbound>  (550) 
0.134089

>  <∆G_bound>  (550) 
-3.300751

>  <regarded>  (550) 
mArh-EU0844_0_A_α,mArh-x0592_0_A_α

>  <ref_pdb>  (550) 
nan

>  <smiles>  (550) 
CNC1(O)CCc2nc3cc(F)c(N)cc3cc21

>  <submitter_email>  (550) 
nan

>  <disregarded>  (550) 


>  <LE>  (550) 
-0.190824

>  <submitter_institution>  (550) 
nan

>  <ref_mols>  (550) 
mArh-EU0844_0_A,mArh-x0592_0_A

>  <N_constrained_atoms>  (550) 
18.0

>  <ref_url>  (550) 
nan

>  <method>  (550) 
nan

>  <comRMSD>  (550) 
0.659508

>  <N_unconstrained_atoms>  (550) 
0.0

>  <∆∆G>  (550) 
-3.43484

>  <runtime>  (550) 
27.006548

>  <generation_date>  (550) 
nan

$$$$
mArh-6mea_B_0_B_α-5CB5_0_P_γ
     RDKit          3D

 22 23  0  0  0  0  0  0  0  0999 V2000
   -2.3120   21.7860   -8.9580 C   0  0  0  0  0  0  0  0  0  0  0  0
   -3.2200   22.3740   -7.9450 C   0  0  2  0  0  0  0  0  0  0  0  0
   -4.2700   21.4630   -7.8180 O   0  0  0  0  0  0  0  0  0  0  0  0
   -3.9820   23.7170   -8.1020 C   0  0  1  0  0  0  0  0  0  0  0  0
   -4.4180   24.0220   -9.4290 O   0  0  0  0  0  0  0  0  0  0  0  0
   -4.6470   22.1670   -6.7150 C   0  0  1  0  0  0  0  0  0  0  0  0
   -5.2390   23.4240   -7.2500 C   0  0  1  0  0  0  0  0  0  0  0  0
   -5.1390   21.4190   -5.6750 O   0  0  0  0  0  0  0  0  0  0  0  0
   -5.5130   24.3830   -6.2420 O   0  0  0  0  0  0  0  0  0  0  0  0
   -3.8170   21.0070   -5.3030 C   0  0  0  0  0  0  0  0  0  0  0  0
   -3.0330   20.1810   -6.3710 C   0  0  0  0  0  0  0  0  0  0  0  0
   -1.5880   19.9250   -5.9960 C   0  0  0  0  0  0  0  0  0  0  0  0
   -0.9040   18.8370   -6.8350 C   0  0  0  0  0  0  0  0  0  0  0  0
    0.1280   18.0270   -6.0300 C   0  0  0  0  0  0  0  0  0  0  0  0
   -0.5420   16.9090   -5.2240 C   0  0  0  0  0  0  0  0  0  0  0  0
    0.3950   15.8500   -4.6130 C   0  0  1  0  0  0  0  0  0  0  0  0
    0.0840   15.8140   -3.1980 O   0  0  0  0  0  0  0  0  0  0  0  0
    0.1950   14.4010   -5.0770 C   0  0  1  0  0  0  0  0  0  0  0  0
    1.3160   13.5410   -4.9610 O   0  0  0  0  0  0  0  0  0  0  0  0
   -0.7380   14.6700   -2.9160 C   0  0  0  0  0  0  0  0  0  0  0  0
   -0.9540   13.9180   -4.2130 C   0  0  2  0  0  0  0  0  0  0  0  0
   -0.8850   12.5100   -4.0710 O   0  0  0  0  0  0  0  0  0  0  0  0
  2  1  1  6
  2  3  1  0
  2  4  1  0
  4  5  1  6
  3  6  1  0
  4  7  1  0
  6  7  1  0
  6  8  1  6
  7  9  1  1
  8 10  1  0
 10 11  1  0
 11 12  1  0
 12 13  1  0
 13 14  1  0
 14 15  1  0
 16 15  1  6
 16 17  1  0
 16 18  1  0
 18 19  1  1
 17 20  1  0
 18 21  1  0
 20 21  1  0
 21 22  1  1
M  END
>  <%Rank>  (551) 
41.984733

>  <N_hits>  (551) 
2

>  <submitter_name>  (551) 
nan

>  <original SMILES>  (551) 
nan

>  <∆G_unbound>  (551) 
0.187336

>  <∆G_bound>  (551) 
-10.637426

>  <regarded>  (551) 
mArh-6mea_B_0_B_α,5CB5_0_P_γ

>  <ref_pdb>  (551) 
nan

>  <smiles>  (551) 
CC1OC(OCCCCCCC2OCC(O)C2O)C(O)C1O

>  <submitter_email>  (551) 
nan

>  <disregarded>  (551) 


>  <LE>  (551) 
-0.492035

>  <submitter_institution>  (551) 
nan

>  <ref_mols>  (551) 
mArh-6mea_B_0_B,5CB5_0_P

>  <N_constrained_atoms>  (551) 
17.0

>  <ref_url>  (551) 
nan

>  <method>  (551) 
nan

>  <comRMSD>  (551) 
0.642022

>  <N_unconstrained_atoms>  (551) 
5.0

>  <∆∆G>  (551) 
-10.824761

>  <runtime>  (551) 
48.002659

>  <generation_date>  (551) 
nan

$$$$
5CMS_0_M_β-5CB5_0_F_δ
     RDKit          3D

 21 22  0  0  0  0  0  0  0  0999 V2000
   -1.4060   20.6480   -8.9270 O   0  0  0  0  0  0  0  0  0  0  0  0
   -0.7960   19.8470   -7.7850 P   0  0  0  0  0  0  0  0  0  0  0  0
   -0.4470   18.9330   -6.6210 O   0  0  0  0  0  0  0  0  0  0  0  0
    0.3780   20.9290   -7.5470 O   0  0  0  0  0  0  0  0  0  0  0  0
   -0.3720   18.5890   -8.7870 O   0  0  0  0  0  0  0  0  0  0  0  0
   -1.2910   17.8460   -5.9450 P   0  0  0  0  0  0  0  0  0  0  0  0
   -2.0080   16.6220   -5.3380 O   0  0  0  0  0  0  0  0  0  0  0  0
   -2.4240   17.9120   -7.1180 O   0  0  0  0  0  0  0  0  0  0  0  0
   -1.6020   18.7500   -4.6360 O   0  0  0  0  0  0  0  0  0  0  0  0
   -1.2390   15.7330   -4.5730 C   0  0  0  0  0  0  0  0  0  0  0  0
   -1.3310   16.0460   -3.1090 C   0  0  0  0  0  0  0  0  0  0  0  0
   -1.6360   14.8370   -2.3210 N   0  0  0  0  0  0  0  0  0  0  0  0
   -1.2970   15.1050   -0.9600 C   0  0  1  0  0  0  0  0  0  0  0  0
   -3.0790   14.6830   -2.3480 C   0  0  0  0  0  0  0  0  0  0  0  0
   -2.3750   14.2580   -0.2620 C   0  0  2  0  0  0  0  0  0  0  0  0
   -3.5200   14.7380   -0.9420 N   0  0  0  0  0  0  0  0  0  0  0  0
   -0.0160   14.5990   -0.5180 N   0  0  0  0  0  0  0  0  0  0  0  0
    0.0020   14.8620    0.9100 C   0  0  0  0  0  0  0  0  0  0  0  0
   -2.3210   14.5790    1.2080 C   0  0  2  0  0  0  0  0  0  0  0  0
   -3.5590   15.2570    1.5860 N   0  0  0  0  0  0  0  0  0  0  0  0
   -1.2150   15.4700    1.3180 N   0  0  0  0  0  0  0  0  0  0  0  0
  1  2  1  0
  2  3  1  0
  2  4  1  0
  2  5  1  0
  3  6  1  0
  6  7  1  0
  6  8  1  0
  6  9  1  0
  7 10  1  0
 10 11  1  0
 11 12  1  0
 12 13  1  0
 12 14  1  0
 13 15  1  0
 14 16  1  0
 15 16  1  6
 13 17  1  1
 17 18  1  0
 15 19  1  0
 19 20  1  6
 18 21  1  0
 19 21  1  0
M  CHG  2   4  -1   8  -1
M  END
>  <%Rank>  (552) 
42.061069

>  <N_hits>  (552) 
2

>  <submitter_name>  (552) 
nan

>  <original SMILES>  (552) 
nan

>  <∆G_unbound>  (552) 
0.88229

>  <∆G_bound>  (552) 
-7.269658

>  <regarded>  (552) 
5CMS_0_M_β,5CB5_0_F_δ

>  <ref_pdb>  (552) 
nan

>  <smiles>  (552) 
NC1NCNC2C1NCN2CCO[PH]([O-])(O)O[PH]([O-])(O)O

>  <submitter_email>  (552) 
nan

>  <disregarded>  (552) 


>  <LE>  (552) 
-0.388188

>  <submitter_institution>  (552) 
nan

>  <ref_mols>  (552) 
5CMS_0_M,5CB5_0_F

>  <N_constrained_atoms>  (552) 
19.0

>  <ref_url>  (552) 
nan

>  <method>  (552) 
nan

>  <comRMSD>  (552) 
0.726379

>  <N_unconstrained_atoms>  (552) 
2.0

>  <∆∆G>  (552) 
-8.151948

>  <runtime>  (552) 
33.783154

>  <generation_date>  (552) 
nan

$$$$
mArh-5cb5_F_1_F_α-5CB5_0_P_γ
     RDKit          3D

 25 26  0  0  0  0  0  0  0  0999 V2000
   -1.8900   21.3810   -8.9000 C   0  0  0  0  0  0  0  0  0  0  0  0
   -3.1940   21.8300   -9.5540 C   0  0  2  0  0  0  0  0  0  0  0  0
   -3.5010   23.2930   -9.3540 C   0  0  1  0  0  0  0  0  0  0  0  0
   -4.2510   21.2510   -8.8280 O   0  0  0  0  0  0  0  0  0  0  0  0
   -4.6160   23.6560  -10.1830 O   0  0  0  0  0  0  0  0  0  0  0  0
   -3.8660   23.3160   -7.9090 C   0  0  2  0  0  0  0  0  0  0  0  0
   -3.8330   21.8000   -7.6170 C   0  0  1  0  0  0  0  0  0  0  0  0
   -5.0860   24.0010   -7.8340 O   0  0  0  0  0  0  0  0  0  0  0  0
   -4.4050   21.2280   -6.4610 O   0  0  0  0  0  0  0  0  0  0  0  0
   -5.2360   24.1860   -6.5520 C   0  0  0  0  0  0  0  0  0  0  0  0
   -3.2840   20.7750   -5.6800 C   0  0  0  0  0  0  0  0  0  0  0  0
   -4.5110   25.3910   -6.0630 C   0  0  0  0  0  0  0  0  0  0  0  0
   -5.8420   23.4060   -5.9000 O   0  0  0  0  0  0  0  0  0  0  0  0
   -2.5910   19.4710   -6.1410 C   0  0  0  0  0  0  0  0  0  0  0  0
   -1.2570   19.6240   -6.8830 C   0  0  0  0  0  0  0  0  0  0  0  0
   -0.2960   18.4340   -6.7950 C   0  0  0  0  0  0  0  0  0  0  0  0
    0.4010   18.2280   -5.4410 C   0  0  0  0  0  0  0  0  0  0  0  0
    0.8280   16.7690   -5.2120 C   0  0  0  0  0  0  0  0  0  0  0  0
   -0.2790   15.8020   -4.7880 C   0  0  2  0  0  0  0  0  0  0  0  0
   -0.3290   15.8310   -3.3470 O   0  0  0  0  0  0  0  0  0  0  0  0
   -0.1330   14.3030   -5.0860 C   0  0  1  0  0  0  0  0  0  0  0  0
    1.1380   13.7080   -4.8780 O   0  0  0  0  0  0  0  0  0  0  0  0
   -0.9000   14.5960   -2.8880 C   0  0  0  0  0  0  0  0  0  0  0  0
   -1.1670   13.7520   -4.1210 C   0  0  2  0  0  0  0  0  0  0  0  0
   -1.0100   12.3600   -3.8880 O   0  0  0  0  0  0  0  0  0  0  0  0
  2  1  1  1
  2  3  1  0
  2  4  1  0
  3  5  1  6
  3  6  1  0
  4  7  1  0
  6  7  1  0
  6  8  1  6
  7  9  1  1
  8 10  1  0
  9 11  1  0
 10 12  1  0
 10 13  2  0
 11 14  1  0
 14 15  1  0
 15 16  1  0
 16 17  1  0
 17 18  1  0
 19 18  1  1
 19 20  1  0
 19 21  1  0
 21 22  1  1
 20 23  1  0
 21 24  1  0
 23 24  1  0
 24 25  1  1
M  END
>  <%Rank>  (553) 
42.137405

>  <N_hits>  (553) 
2

>  <submitter_name>  (553) 
nan

>  <original SMILES>  (553) 
nan

>  <∆G_unbound>  (553) 
0.771395

>  <∆G_bound>  (553) 
-7.608364

>  <regarded>  (553) 
mArh-5cb5_F_1_F_α,5CB5_0_P_γ

>  <ref_pdb>  (553) 
nan

>  <smiles>  (553) 
CC(=O)OC1C(OCCCCCCC2OCC(O)C2O)OC(C)C1O

>  <submitter_email>  (553) 
nan

>  <disregarded>  (553) 


>  <LE>  (553) 
-0.33519

>  <submitter_institution>  (553) 
nan

>  <ref_mols>  (553) 
mArh-5cb5_F_1_F,5CB5_0_P

>  <N_constrained_atoms>  (553) 
20.0

>  <ref_url>  (553) 
nan

>  <method>  (553) 
nan

>  <comRMSD>  (553) 
0.647796

>  <N_unconstrained_atoms>  (553) 
5.0

>  <∆∆G>  (553) 
-8.379758

>  <runtime>  (553) 
40.665282

>  <generation_date>  (553) 
nan

$$$$
mArh-5cb5_M_1_M_α-5CMS_0_G_α
     RDKit          3D

 20 20  0  0  0  0  0  0  0  0999 V2000
   -1.7470   21.6590   -7.8860 C   0  0  0  0  0  0  0  0  0  0  0  0
   -0.6610   20.2940   -8.0100 P   0  0  0  0  0  0  0  0  0  0  0  0
   -0.7180   19.7000   -6.6000 O   0  0  0  0  0  0  0  0  0  0  0  0
   -3.0590   21.7820   -8.6350 C   0  0  2  0  0  0  0  0  0  0  0  0
   -0.9390   18.8160   -8.5960 O   0  0  0  0  0  0  0  0  0  0  0  0
    0.9560   20.6940   -7.6610 O   0  0  0  0  0  0  0  0  0  0  0  0
   -3.7200   23.1210   -8.6070 C   0  0  1  0  0  0  0  0  0  0  0  0
   -3.9290   21.0070   -7.9380 O   0  0  0  0  0  0  0  0  0  0  0  0
   -4.6900   23.1900   -9.6220 O   0  0  0  0  0  0  0  0  0  0  0  0
   -1.7580   18.4240   -6.1570 P   0  0  0  0  0  0  0  0  0  0  0  0
   -4.4180   23.1860   -7.2220 C   0  0  2  0  0  0  0  0  0  0  0  0
   -4.9590   21.8540   -7.6050 C   0  0  2  0  0  0  0  0  0  0  0  0
   -4.8260   24.4710   -7.6340 O   0  0  0  0  0  0  0  0  0  0  0  0
   -5.6960   21.3450   -6.5260 O   0  0  0  0  0  0  0  0  0  0  0  0
   -0.5870   17.4460   -6.1890 O   0  0  0  0  0  0  0  0  0  0  0  0
   -1.8770   18.1120   -4.5430 O   0  0  0  0  0  0  0  0  0  0  0  0
   -2.7520   17.7030   -7.1370 O   0  0  0  0  0  0  0  0  0  0  0  0
   -6.0220   24.5630   -8.3430 C   0  0  0  0  0  0  0  0  0  0  0  0
   -6.3520   25.6550   -9.2770 C   0  0  0  0  0  0  0  0  0  0  0  0
   -6.8460   23.6490   -8.1700 O   0  0  0  0  0  0  0  0  0  0  0  0
  1  2  1  0
  2  3  1  0
  4  1  1  1
  2  5  1  0
  2  6  1  0
  4  7  1  0
  4  8  1  0
  7  9  1  6
  3 10  1  0
  7 11  1  0
  8 12  1  0
 11 12  1  0
 11 13  1  6
 12 14  1  1
 10 15  1  0
 10 16  1  0
 10 17  1  0
 13 18  1  0
 18 19  1  0
 18 20  2  0
M  CHG  2   5  -1  16  -1
M  END
>  <%Rank>  (554) 
42.21374

>  <N_hits>  (554) 
2

>  <submitter_name>  (554) 
nan

>  <original SMILES>  (554) 
nan

>  <∆G_unbound>  (554) 
4.254775

>  <∆G_bound>  (554) 
-5.459511

>  <regarded>  (554) 
mArh-5cb5_M_1_M_α,5CMS_0_G_α

>  <ref_pdb>  (554) 
nan

>  <smiles>  (554) 
CC(=O)OC1C(O)OC(C[PH]([O-])(O)O[PH]([O-])(O)O)C1O

>  <submitter_email>  (554) 
nan

>  <disregarded>  (554) 


>  <LE>  (554) 
-0.485714

>  <submitter_institution>  (554) 
nan

>  <ref_mols>  (554) 
mArh-5cb5_M_1_M,5CMS_0_G

>  <N_constrained_atoms>  (554) 
20.0

>  <ref_url>  (554) 
nan

>  <method>  (554) 
nan

>  <comRMSD>  (554) 
0.848122

>  <N_unconstrained_atoms>  (554) 
0.0

>  <∆∆G>  (554) 
-9.714285

>  <runtime>  (554) 
35.208809

>  <generation_date>  (554) 
nan

$$$$
mArh-5l9k_A_0_A_β-5CB5_0_D_γ
     RDKit          3D

 18 18  0  0  0  0  0  0  0  0999 V2000
   -1.9260   20.8340   -8.8970 O   0  0  0  0  0  0  0  0  0  0  0  0
   -1.0050   19.9710   -7.9420 P   0  0  0  0  0  0  0  0  0  0  0  0
   -1.8900   19.6670   -6.6750 O   0  0  0  0  0  0  0  0  0  0  0  0
   -0.4970   18.7610   -8.6490 O   0  0  0  0  0  0  0  0  0  0  0  0
    0.1550   20.9850   -7.5840 O   0  0  0  0  0  0  0  0  0  0  0  0
   -2.0550   18.2230   -6.0890 P   0  0  1  0  0  0  0  0  0  0  0  0
   -0.7550   17.5340   -6.6080 O   0  0  0  0  0  0  0  0  0  0  0  0
   -2.2520   18.0620   -4.6400 O   0  0  0  0  0  0  0  0  0  0  0  0
   -3.1570   17.5150   -7.0070 O   0  0  0  0  0  0  0  0  0  0  0  0
    0.4390   18.0260   -6.0720 C   0  0  0  0  0  0  0  0  0  0  0  0
    1.0100   16.9640   -5.1720 C   0  0  0  0  0  0  0  0  0  0  0  0
   -0.0120   15.9670   -4.6580 C   0  0  2  0  0  0  0  0  0  0  0  0
    0.1110   15.8500   -3.2310 O   0  0  0  0  0  0  0  0  0  0  0  0
    0.1230   14.5350   -5.1990 C   0  0  1  0  0  0  0  0  0  0  0  0
    1.4680   14.0950   -5.3260 O   0  0  0  0  0  0  0  0  0  0  0  0
   -0.3890   14.5480   -2.8700 C   0  0  0  0  0  0  0  0  0  0  0  0
   -0.5810   13.7290   -4.1460 C   0  0  2  0  0  0  0  0  0  0  0  0
    0.0720   12.4660   -4.0350 O   0  0  0  0  0  0  0  0  0  0  0  0
  1  2  1  0
  2  3  1  0
  2  4  2  0
  2  5  1  0
  3  6  1  0
  6  7  1  0
  6  8  2  0
  6  9  1  6
  7 10  1  0
 10 11  1  0
 12 11  1  6
 12 13  1  0
 12 14  1  0
 14 15  1  1
 13 16  1  0
 14 17  1  0
 16 17  1  0
 17 18  1  1
M  END
>  <%Rank>  (555) 
42.290076

>  <N_hits>  (555) 
2

>  <submitter_name>  (555) 
nan

>  <original SMILES>  (555) 
nan

>  <∆G_unbound>  (555) 
2.208268

>  <∆G_bound>  (555) 
-8.6463

>  <regarded>  (555) 
mArh-5l9k_A_0_A_β,5CB5_0_D_γ

>  <ref_pdb>  (555) 
nan

>  <smiles>  (555) 
O=P(O)(O)OP(=O)(O)OCCC1OCC(O)C1O

>  <submitter_email>  (555) 
nan

>  <disregarded>  (555) 


>  <LE>  (555) 
-0.603032

>  <submitter_institution>  (555) 
nan

>  <ref_mols>  (555) 
mArh-5l9k_A_0_A,5CB5_0_D

>  <N_constrained_atoms>  (555) 
17.0

>  <ref_url>  (555) 
nan

>  <method>  (555) 
nan

>  <comRMSD>  (555) 
0.816701

>  <N_unconstrained_atoms>  (555) 
1.0

>  <∆∆G>  (555) 
-10.854568

>  <runtime>  (555) 
35.985665

>  <generation_date>  (555) 
nan

$$$$
5CB5_0_G_β-5CB5_0_I_γ
     RDKit          3D

 16 16  0  0  0  0  0  0  0  0999 V2000
   -1.4080   20.7040   -8.1220 O   0  0  0  0  0  0  0  0  0  0  0  0
   -0.4340   19.3870   -7.8420 P   0  0  0  0  0  0  0  0  0  0  0  0
   -0.2690   18.7140   -6.3430 O   0  0  0  0  0  0  0  0  0  0  0  0
    0.7390   20.3220   -7.5720 O   0  0  0  0  0  0  0  0  0  0  0  0
    0.1740   18.5890   -9.0450 O   0  0  0  0  0  0  0  0  0  0  0  0
   -1.7140   18.3220   -5.8210 P   0  0  0  0  0  0  0  0  0  0  0  0
   -1.3770   17.0600   -4.9190 O   0  0  0  0  0  0  0  0  0  0  0  0
   -2.7290   17.2790   -6.6810 O   0  0  0  0  0  0  0  0  0  0  0  0
   -2.3190   19.2360   -4.6460 O   0  0  0  0  0  0  0  0  0  0  0  0
   -0.2180   16.2620   -4.7590 C   0  0  1  0  0  0  0  0  0  0  0  0
    0.1010   16.1270   -3.3990 O   0  0  0  0  0  0  0  0  0  0  0  0
   -0.2810   14.8400   -5.2460 C   0  0  1  0  0  0  0  0  0  0  0  0
    0.9120   14.4090   -5.8610 O   0  0  0  0  0  0  0  0  0  0  0  0
   -0.6990   15.0590   -2.9570 C   0  0  0  0  0  0  0  0  0  0  0  0
   -0.3000   14.0010   -3.9700 C   0  0  1  0  0  0  0  0  0  0  0  0
   -1.2170   12.9990   -4.1310 O   0  0  0  0  0  0  0  0  0  0  0  0
  1  2  1  0
  2  3  1  0
  2  4  1  0
  2  5  1  0
  3  6  1  0
  6  7  1  0
  6  8  1  0
  6  9  1  0
 10  7  1  1
 10 11  1  0
 10 12  1  0
 12 13  1  6
 11 14  1  0
 12 15  1  0
 14 15  1  0
 15 16  1  6
M  CHG  2   4  -1   8  -1
M  END
>  <%Rank>  (556) 
42.366412

>  <N_hits>  (556) 
2

>  <submitter_name>  (556) 
nan

>  <original SMILES>  (556) 
nan

>  <∆G_unbound>  (556) 
1.160673

>  <∆G_bound>  (556) 
-6.477273

>  <regarded>  (556) 
5CB5_0_G_β,5CB5_0_I_γ

>  <ref_pdb>  (556) 
nan

>  <smiles>  (556) 
[O-][PH](O)(O)O[PH]([O-])(O)OC1OCC(O)C1O

>  <submitter_email>  (556) 
nan

>  <disregarded>  (556) 


>  <LE>  (556) 
-0.477372

>  <submitter_institution>  (556) 
nan

>  <ref_mols>  (556) 
5CB5_0_G,5CB5_0_I

>  <N_constrained_atoms>  (556) 
16.0

>  <ref_url>  (556) 
nan

>  <method>  (556) 
nan

>  <comRMSD>  (556) 
0.761615

>  <N_unconstrained_atoms>  (556) 
0.0

>  <∆∆G>  (556) 
-7.637947

>  <runtime>  (556) 
31.253503

>  <generation_date>  (556) 
nan

$$$$
mArh-5cms_E_5_E_β-mArh-5cb5_P_0_P_α
     RDKit          3D

 17 17  0  0  0  0  0  0  0  0999 V2000
   -2.2730   20.8770   -7.5460 O   0  0  0  0  0  0  0  0  0  0  0  0
   -0.8110   20.1300   -7.7830 P   0  0  2  0  0  0  0  0  0  0  0  0
   -0.5160   19.0600   -6.6310 O   0  0  0  0  0  0  0  0  0  0  0  0
   -3.0650   21.7090   -8.4590 C   0  0  1  0  0  0  0  0  0  0  0  0
    0.3880   21.0040   -7.9570 O   0  0  0  0  0  0  0  0  0  0  0  0
   -0.9260   19.0370   -8.9250 O   0  0  0  0  0  0  0  0  0  0  0  0
   -4.4330   21.3270   -8.4070 O   0  0  0  0  0  0  0  0  0  0  0  0
   -3.2630   23.2210   -8.1270 C   0  0  1  0  0  0  0  0  0  0  0  0
   -1.6690   18.1820   -5.9740 P   0  0  0  0  0  0  0  0  0  0  0  0
   -3.9420   23.9540   -9.1660 O   0  0  0  0  0  0  0  0  0  0  0  0
   -5.0420   21.9630   -7.2630 C   0  0  2  0  0  0  0  0  0  0  0  0
   -4.2000   23.1720   -6.9220 C   0  0  2  0  0  0  0  0  0  0  0  0
   -0.9400   17.1160   -5.0460 O   0  0  0  0  0  0  0  0  0  0  0  0
   -2.6960   17.5910   -6.8520 O   0  0  0  0  0  0  0  0  0  0  0  0
   -2.2350   19.2160   -4.9070 O   0  0  0  0  0  0  0  0  0  0  0  0
   -5.0210   21.1210   -6.1210 O   0  0  0  0  0  0  0  0  0  0  0  0
   -5.0920   24.2920   -6.8650 O   0  0  0  0  0  0  0  0  0  0  0  0
  1  2  1  0
  2  3  1  0
  4  1  1  1
  2  5  2  0
  2  6  1  6
  4  7  1  0
  4  8  1  0
  3  9  1  0
  8 10  1  6
  7 11  1  0
  8 12  1  0
 11 12  1  0
  9 13  1  0
  9 14  2  0
  9 15  1  0
 11 16  1  1
 12 17  1  6
M  END
>  <%Rank>  (557) 
42.442748

>  <N_hits>  (557) 
2

>  <submitter_name>  (557) 
nan

>  <original SMILES>  (557) 
nan

>  <∆G_unbound>  (557) 
1.974322

>  <∆G_bound>  (557) 
-9.738116

>  <regarded>  (557) 
mArh-5cms_E_5_E_β,mArh-5cb5_P_0_P_α

>  <ref_pdb>  (557) 
nan

>  <smiles>  (557) 
O=P(O)(O)OP(=O)(O)OC1OC(O)C(O)C1O

>  <submitter_email>  (557) 
nan

>  <disregarded>  (557) 


>  <LE>  (557) 
-0.688967

>  <submitter_institution>  (557) 
nan

>  <ref_mols>  (557) 
mArh-5cms_E_5_E,mArh-5cb5_P_0_P

>  <N_constrained_atoms>  (557) 
17.0

>  <ref_url>  (557) 
nan

>  <method>  (557) 
nan

>  <comRMSD>  (557) 
0.890581

>  <N_unconstrained_atoms>  (557) 
0.0

>  <∆∆G>  (557) 
-11.712437

>  <runtime>  (557) 
26.728548

>  <generation_date>  (557) 
nan

$$$$
mArh-x0962_0_A_α-mArh-6woj_B_0_B_α
     RDKit          3D

 22 23  0  0  0  0  0  0  0  0999 V2000
   -3.4600   14.1260   -2.7280 N   0  0  0  0  0  0  0  0  0  0  0  0
   -2.7150   14.7230   -1.6450 C   0  0  1  0  0  0  0  0  0  0  0  0
   -2.0710   15.9630   -2.2390 C   0  0  0  0  0  0  0  0  0  0  0  0
   -3.6800   14.9070   -0.5090 C   0  0  0  0  0  0  0  0  0  0  0  0
   -2.2100   16.0840   -3.7830 C   0  0  0  0  0  0  0  0  0  0  0  0
   -3.2810   15.2850    0.7570 N   0  0  0  0  0  0  0  0  0  0  0  0
   -5.0490   14.7680   -0.3980 C   0  0  0  0  0  0  0  0  0  0  0  0
   -1.2470   17.0700   -4.4740 C   0  0  0  0  0  0  0  0  0  0  0  0
   -4.4000   15.3510    1.5420 C   0  0  0  0  0  0  0  0  0  0  0  0
   -5.4820   15.0380    0.8690 N   0  0  0  0  0  0  0  0  0  0  0  0
   -1.8670   17.8530   -5.6510 C   0  0  0  0  0  0  0  0  0  0  0  0
   -1.9020   19.3820   -5.4880 C   0  0  0  0  0  0  0  0  0  0  0  0
   -2.8150   20.1590   -6.4260 C   0  0  0  0  0  0  0  0  0  0  0  0
   -3.8980   20.8660   -5.7520 O   0  0  0  0  0  0  0  0  0  0  0  0
   -4.5670   21.7290   -6.6970 C   0  0  2  0  0  0  0  0  0  0  0  0
   -3.9970   21.3060   -7.9400 O   0  0  0  0  0  0  0  0  0  0  0  0
   -4.2460   23.2390   -6.5590 C   0  0  2  0  0  0  0  0  0  0  0  0
   -5.3530   24.1030   -6.2930 O   0  0  0  0  0  0  0  0  0  0  0  0
   -3.0330   22.2670   -8.3740 C   0  0  1  0  0  0  0  0  0  0  0  0
   -3.5630   23.5970   -7.8880 C   0  0  1  0  0  0  0  0  0  0  0  0
   -1.6410   21.9430   -7.8400 C   0  0  0  0  0  0  0  0  0  0  0  0
   -4.5290   24.0800   -8.8390 O   0  0  0  0  0  0  0  0  0  0  0  0
  2  1  1  6
  2  3  1  0
  2  4  1  0
  3  5  1  0
  4  6  1  0
  4  7  2  0
  5  8  1  0
  6  9  1  0
  7 10  1  0
  9 10  2  0
  8 11  1  0
 11 12  1  0
 12 13  1  0
 13 14  1  0
 15 14  1  1
 15 16  1  0
 15 17  1  0
 17 18  1  6
 16 19  1  0
 17 20  1  0
 19 20  1  0
 19 21  1  1
 20 22  1  6
M  END
>  <%Rank>  (558) 
42.519084

>  <N_hits>  (558) 
2

>  <submitter_name>  (558) 
nan

>  <original SMILES>  (558) 
nan

>  <∆G_unbound>  (558) 
1.528506

>  <∆G_bound>  (558) 
-10.046091

>  <regarded>  (558) 
mArh-x0962_0_A_α,mArh-6woj_B_0_B_α

>  <ref_pdb>  (558) 
nan

>  <smiles>  (558) 
CC1OC(OCCCCCCC(N)c2cnc[nH]2)C(O)C1O

>  <submitter_email>  (558) 
nan

>  <disregarded>  (558) 


>  <LE>  (558) 
-0.526118

>  <submitter_institution>  (558) 
nan

>  <ref_mols>  (558) 
mArh-x0962_0_A,mArh-6woj_B_0_B

>  <N_constrained_atoms>  (558) 
16.0

>  <ref_url>  (558) 
nan

>  <method>  (558) 
nan

>  <comRMSD>  (558) 
0.600252

>  <N_unconstrained_atoms>  (558) 
6.0

>  <∆∆G>  (558) 
-11.574597

>  <runtime>  (558) 
50.452626

>  <generation_date>  (558) 
nan

$$$$
5CB5_0_L_β-6WOJ_0_A_α
     RDKit          3D

 17 17  0  0  0  0  0  0  0  0999 V2000
   -1.8750   21.2740   -8.8480 O   0  0  0  0  0  0  0  0  0  0  0  0
   -0.7410   20.3900   -7.9350 P   0  0  0  0  0  0  0  0  0  0  0  0
   -1.2180   19.7930   -6.4930 O   0  0  0  0  0  0  0  0  0  0  0  0
   -3.1450   21.6680   -8.3190 C   0  0  1  0  0  0  0  0  0  0  0  0
   -0.3170   21.7150   -7.3230 O   0  0  0  0  0  0  0  0  0  0  0  0
   -1.0150   19.0510   -8.6120 O   0  0  0  0  0  0  0  0  0  0  0  0
   -3.5050   21.1190   -7.1270 O   0  0  0  0  0  0  0  0  0  0  0  0
   -3.2860   23.2160   -8.0080 C   0  0  1  0  0  0  0  0  0  0  0  0
   -1.2470   18.3070   -6.0670 P   0  0  0  0  0  0  0  0  0  0  0  0
   -4.0810   23.7760   -9.0100 O   0  0  0  0  0  0  0  0  0  0  0  0
   -4.6040   21.8220   -6.7250 C   0  0  2  0  0  0  0  0  0  0  0  0
   -4.1090   23.2230   -6.6840 C   0  0  2  0  0  0  0  0  0  0  0  0
   -1.1120   16.8270   -5.7000 O   0  0  0  0  0  0  0  0  0  0  0  0
   -2.5270   18.0160   -7.0440 O   0  0  0  0  0  0  0  0  0  0  0  0
   -1.5740   18.7140   -4.5130 O   0  0  0  0  0  0  0  0  0  0  0  0
   -5.2060   21.4510   -5.5370 O   0  0  0  0  0  0  0  0  0  0  0  0
   -5.1670   24.1500   -6.7720 O   0  0  0  0  0  0  0  0  0  0  0  0
  1  2  1  0
  2  3  1  0
  4  1  1  1
  2  5  1  0
  2  6  1  0
  4  7  1  0
  4  8  1  0
  3  9  1  0
  8 10  1  6
  7 11  1  0
  8 12  1  0
 11 12  1  0
  9 13  1  0
  9 14  1  0
  9 15  1  0
 11 16  1  1
 12 17  1  6
M  CHG  2   5  -1  14  -1
M  END
>  <%Rank>  (559) 
42.59542

>  <N_hits>  (559) 
2

>  <submitter_name>  (559) 
nan

>  <original SMILES>  (559) 
nan

>  <∆G_unbound>  (559) 
0.972863

>  <∆G_bound>  (559) 
-7.59714

>  <regarded>  (559) 
5CB5_0_L_β,6WOJ_0_A_α

>  <ref_pdb>  (559) 
nan

>  <smiles>  (559) 
[O-][PH](O)(O)O[PH]([O-])(O)OC1OC(O)C(O)C1O

>  <submitter_email>  (559) 
nan

>  <disregarded>  (559) 


>  <LE>  (559) 
-0.504118

>  <submitter_institution>  (559) 
nan

>  <ref_mols>  (559) 
5CB5_0_L,6WOJ_0_A

>  <N_constrained_atoms>  (559) 
17.0

>  <ref_url>  (559) 
nan

>  <method>  (559) 
nan

>  <comRMSD>  (559) 
0.799726

>  <N_unconstrained_atoms>  (559) 
0.0

>  <∆∆G>  (559) 
-8.570003

>  <runtime>  (559) 
36.552753

>  <generation_date>  (559) 
nan

$$$$
mArh-x0900_1_A_α-mArh-5cms_P_15_P_γ
     RDKit          3D

 16 17  0  0  0  0  0  0  0  0999 V2000
   -0.9770    9.9480   -9.6570 O   0  0  0  0  0  0  0  0  0  0  0  0
   -0.8480    9.5670   -8.5060 C   0  0  0  0  0  0  0  0  0  0  0  0
    0.1590    8.7570   -8.0380 N   0  0  0  0  0  0  0  0  0  0  0  0
   -1.7340    9.8710   -7.3170 C   0  0  2  0  0  0  0  0  0  0  0  0
   -1.2880   11.1510   -6.5920 C   0  0  0  0  0  0  0  0  0  0  0  0
   -1.6130    8.5670   -6.5120 C   0  0  0  0  0  0  0  0  0  0  0  0
   -0.2700    7.9780   -6.9130 C   0  0  0  0  0  0  0  0  0  0  0  0
   -1.4970   11.1420   -5.0730 C   0  0  0  0  0  0  0  0  0  0  0  0
   -1.7900   12.4680   -4.6070 O   0  0  0  0  0  0  0  0  0  0  0  0
   -0.6340   13.1560   -4.1020 C   0  0  2  0  0  0  0  0  0  0  0  0
   -1.0320   14.2210   -3.0690 C   0  0  0  0  0  0  0  0  0  0  0  0
    0.0570   13.9660   -5.1980 C   0  0  2  0  0  0  0  0  0  0  0  0
    1.4420   13.6260   -5.1550 O   0  0  0  0  0  0  0  0  0  0  0  0
   -0.2660   15.3960   -3.3710 O   0  0  0  0  0  0  0  0  0  0  0  0
   -0.2420   15.4210   -4.8020 C   0  0  1  0  0  0  0  0  0  0  0  0
    0.7080   16.5050   -5.2840 C   0  0  0  0  0  0  0  0  0  0  0  0
  1  2  2  0
  2  3  1  0
  2  4  1  0
  4  5  1  1
  4  6  1  0
  3  7  1  0
  6  7  1  0
  5  8  1  0
  8  9  1  0
 10  9  1  6
 10 11  1  0
 10 12  1  0
 12 13  1  1
 11 14  1  0
 12 15  1  0
 14 15  1  0
 15 16  1  1
M  END
>  <%Rank>  (560) 
42.671756

>  <N_hits>  (560) 
2

>  <submitter_name>  (560) 
nan

>  <original SMILES>  (560) 
nan

>  <∆G_unbound>  (560) 
0.112539

>  <∆G_bound>  (560) 
-3.53835

>  <regarded>  (560) 
mArh-x0900_1_A_α,mArh-5cms_P_15_P_γ

>  <ref_pdb>  (560) 
nan

>  <smiles>  (560) 
CC1OCC(OCCC2CCNC2=O)C1O

>  <submitter_email>  (560) 
nan

>  <disregarded>  (560) 


>  <LE>  (560) 
-0.228181

>  <submitter_institution>  (560) 
nan

>  <ref_mols>  (560) 
mArh-x0900_1_A,mArh-5cms_P_15_P

>  <N_constrained_atoms>  (560) 
14.0

>  <ref_url>  (560) 
nan

>  <method>  (560) 
nan

>  <comRMSD>  (560) 
0.520919

>  <N_unconstrained_atoms>  (560) 
2.0

>  <∆∆G>  (560) 
-3.650888

>  <runtime>  (560) 
32.239831

>  <generation_date>  (560) 
nan

$$$$
mArh-EU0056_0_A_α-5CMS_0_J_β
     RDKit          3D

 23 23  0  0  0  0  0  0  0  0999 V2000
   -8.0420   13.6650    4.1150 N   0  0  0  0  0  0  0  0  0  0  0  0
   -8.1740   14.8430    3.2940 C   0  0  0  0  0  0  0  0  0  0  0  0
   -7.4030   14.7540    2.0130 C   0  0  0  0  0  0  0  0  0  0  0  0
   -8.1380   14.5220    0.8560 C   0  0  0  0  0  0  0  0  0  0  0  0
   -6.0330   14.9010    1.9590 C   0  0  0  0  0  0  0  0  0  0  0  0
   -7.4360   14.4550   -0.2860 N   0  0  0  0  0  0  0  0  0  0  0  0
   -5.3400   14.8250    0.7230 C   0  0  0  0  0  0  0  0  0  0  0  0
   -3.9630   14.9880    0.7400 O   0  0  0  0  0  0  0  0  0  0  0  0
   -6.1060   14.5950   -0.3890 C   0  0  0  0  0  0  0  0  0  0  0  0
   -2.9480   14.5620   -0.1090 C   0  0  0  0  0  0  0  0  0  0  0  0
   -2.1580   15.5850   -0.8770 C   0  0  0  0  0  0  0  0  0  0  0  0
   -2.1860   15.5020   -2.3820 C   0  0  0  0  0  0  0  0  0  0  0  0
   -0.9040   15.7710   -3.1210 C   0  0  0  0  0  0  0  0  0  0  0  0
   -0.8770   17.1150   -3.8490 C   0  0  0  0  0  0  0  0  0  0  0  0
   -0.7620   17.0950   -5.2100 O   0  0  0  0  0  0  0  0  0  0  0  0
   -1.7840   18.1160   -5.9860 P   0  0  0  0  0  0  0  0  0  0  0  0
   -0.7740   19.2670   -6.1440 O   0  0  0  0  0  0  0  0  0  0  0  0
   -1.7300   18.1730   -7.6240 O   0  0  0  0  0  0  0  0  0  0  0  0
   -2.9010   17.0780   -6.0840 O   0  0  0  0  0  0  0  0  0  0  0  0
   -0.1950   19.8510   -7.5730 P   0  0  0  0  0  0  0  0  0  0  0  0
    0.0170   21.4330   -7.8520 O   0  0  0  0  0  0  0  0  0  0  0  0
    0.3970   18.7330   -8.6890 O   0  0  0  0  0  0  0  0  0  0  0  0
   -1.4370   19.7280   -8.3970 O   0  0  0  0  0  0  0  0  0  0  0  0
  1  2  1  0
  2  3  1  0
  3  4  2  0
  3  5  1  0
  4  6  1  0
  5  7  2  0
  7  8  1  0
  6  9  2  0
  7  9  1  0
  8 10  1  0
 10 11  1  0
 11 12  1  0
 12 13  1  0
 13 14  1  0
 14 15  1  0
 15 16  1  0
 16 17  1  0
 16 18  1  0
 16 19  1  0
 17 20  1  0
 20 21  1  0
 20 22  1  0
 20 23  1  0
M  CHG  2  18  -1  22  -1
M  END
>  <%Rank>  (561) 
42.748092

>  <N_hits>  (561) 
2

>  <submitter_name>  (561) 
nan

>  <original SMILES>  (561) 
nan

>  <∆G_unbound>  (561) 
0.532853

>  <∆G_bound>  (561) 
-7.661097

>  <regarded>  (561) 
mArh-EU0056_0_A_α,5CMS_0_J_β

>  <ref_pdb>  (561) 
nan

>  <smiles>  (561) 
NCc1cncc(OCCCCCO[PH]([O-])(O)O[PH]([O-])(O)O)c1

>  <submitter_email>  (561) 
nan

>  <disregarded>  (561) 


>  <LE>  (561) 
-0.356259

>  <submitter_institution>  (561) 
nan

>  <ref_mols>  (561) 
mArh-EU0056_0_A,5CMS_0_J

>  <N_constrained_atoms>  (561) 
18.0

>  <ref_url>  (561) 
nan

>  <method>  (561) 
nan

>  <comRMSD>  (561) 
0.610923

>  <N_unconstrained_atoms>  (561) 
5.0

>  <∆∆G>  (561) 
-8.19395

>  <runtime>  (561) 
37.469241

>  <generation_date>  (561) 
nan

$$$$
mArh-6mea_B_0_B_β-mArh-5cms_O_14_O_β
     RDKit          3D

  9  8  0  0  0  0  0  0  0  0999 V2000
   -1.5290   20.3230   -8.0160 O   0  0  0  0  0  0  0  0  0  0  0  0
   -0.0970   19.7330   -7.6230 P   0  0  0  0  0  0  0  0  0  0  0  0
   -0.2830   18.8770   -6.3330 O   0  0  0  0  0  0  0  0  0  0  0  0
    0.9850   20.7600   -7.5920 O   0  0  0  0  0  0  0  0  0  0  0  0
    0.1180   18.6200   -8.7550 O   0  0  0  0  0  0  0  0  0  0  0  0
   -1.5850   18.1440   -5.8500 P   0  0  0  0  0  0  0  0  0  0  0  0
   -1.0670   16.8000   -5.1750 O   0  0  0  0  0  0  0  0  0  0  0  0
   -2.6190   17.9350   -6.8910 O   0  0  0  0  0  0  0  0  0  0  0  0
   -2.0350   19.0500   -4.6340 O   0  0  0  0  0  0  0  0  0  0  0  0
  1  2  1  0
  2  3  1  0
  2  4  2  0
  2  5  1  0
  3  6  1  0
  6  7  1  0
  6  8  2  0
  6  9  1  0
M  END
>  <%Rank>  (562) 
42.824427

>  <N_hits>  (562) 
2

>  <submitter_name>  (562) 
nan

>  <original SMILES>  (562) 
nan

>  <∆G_unbound>  (562) 
0.687887

>  <∆G_bound>  (562) 
-8.36929

>  <regarded>  (562) 
mArh-6mea_B_0_B_β,mArh-5cms_O_14_O_β

>  <ref_pdb>  (562) 
nan

>  <smiles>  (562) 
O=P(O)(O)OP(=O)(O)O

>  <submitter_email>  (562) 
nan

>  <disregarded>  (562) 


>  <LE>  (562) 
-1.006353

>  <submitter_institution>  (562) 
nan

>  <ref_mols>  (562) 
mArh-6mea_B_0_B,mArh-5cms_O_14_O

>  <N_constrained_atoms>  (562) 
9.0

>  <ref_url>  (562) 
nan

>  <method>  (562) 
nan

>  <comRMSD>  (562) 
0.829858

>  <N_unconstrained_atoms>  (562) 
0.0

>  <∆∆G>  (562) 
-9.057177

>  <runtime>  (562) 
19.388389

>  <generation_date>  (562) 
nan

$$$$
5CMS_0_A_β-3EW5_1_B_α
     RDKit          3D

 14 13  0  0  0  0  0  0  0  0999 V2000
   -2.0780   20.1470   -7.6560 O   0  0  0  0  0  0  0  0  0  0  0  0
   -0.5090   19.8050   -7.9970 P   0  0  0  0  0  0  0  0  0  0  0  0
   -0.3420   19.0430   -6.6570 O   0  0  0  0  0  0  0  0  0  0  0  0
   -2.3130   21.3660   -7.0460 C   0  0  0  0  0  0  0  0  0  0  0  0
    0.6750   20.8700   -7.5380 O   0  0  0  0  0  0  0  0  0  0  0  0
   -0.0730   18.5300   -8.8640 O   0  0  0  0  0  0  0  0  0  0  0  0
   -3.6800   21.9340   -7.4140 C   0  0  2  0  0  0  0  0  0  0  0  0
   -1.3330   18.3130   -5.7800 P   0  0  0  0  0  0  0  0  0  0  0  0
   -4.7890   21.0340   -6.9370 C   0  0  0  0  0  0  0  0  0  0  0  0
   -3.8130   22.3760   -8.6760 O   0  0  0  0  0  0  0  0  0  0  0  0
   -0.2900   17.0900   -5.4790 O   0  0  0  0  0  0  0  0  0  0  0  0
   -2.3810   18.1290   -7.0540 O   0  0  0  0  0  0  0  0  0  0  0  0
   -2.4230   17.7030   -4.9080 O   0  0  0  0  0  0  0  0  0  0  0  0
   -5.5890   21.5810   -5.9680 O   0  0  0  0  0  0  0  0  0  0  0  0
  1  2  1  0
  2  3  1  0
  1  4  1  0
  2  5  1  0
  2  6  1  0
  4  7  1  0
  3  8  1  0
  7  9  1  0
  7 10  1  6
  8 11  1  0
  8 12  1  0
  8 13  1  0
  9 14  1  0
M  CHG  2   5  -1  12  -1
M  END
>  <%Rank>  (563) 
42.900763

>  <N_hits>  (563) 
2

>  <submitter_name>  (563) 
nan

>  <original SMILES>  (563) 
nan

>  <∆G_unbound>  (563) 
1.147853

>  <∆G_bound>  (563) 
-7.59878

>  <regarded>  (563) 
5CMS_0_A_β,3EW5_1_B_α

>  <ref_pdb>  (563) 
nan

>  <smiles>  (563) 
[O-][PH](O)(O)O[PH]([O-])(O)OC[C@@H](O)CO

>  <submitter_email>  (563) 
nan

>  <disregarded>  (563) 


>  <LE>  (563) 
-0.624759

>  <submitter_institution>  (563) 
nan

>  <ref_mols>  (563) 
5CMS_0_A,3EW5_1_B

>  <N_constrained_atoms>  (563) 
14.0

>  <ref_url>  (563) 
nan

>  <method>  (563) 
nan

>  <comRMSD>  (563) 
0.791477

>  <N_unconstrained_atoms>  (563) 
0.0

>  <∆∆G>  (563) 
-8.746633

>  <runtime>  (563) 
31.822024

>  <generation_date>  (563) 
nan

$$$$
mArh-5cms_G_3_G_β-5CMS_0_H_β
     RDKit          3D

 16 16  0  0  0  0  0  0  0  0999 V2000
   -1.8720   13.0590   -3.9500 O   0  0  0  0  0  0  0  0  0  0  0  0
   -0.5860   13.5850   -3.8710 C   0  0  2  0  0  0  0  0  0  0  0  0
   -0.4120   14.5800   -2.7190 C   0  0  0  0  0  0  0  0  0  0  0  0
   -0.2300   14.3940   -5.0880 C   0  0  2  0  0  0  0  0  0  0  0  0
    1.1230   14.1560   -5.3240 O   0  0  0  0  0  0  0  0  0  0  0  0
    0.1280   15.7270   -3.3280 O   0  0  0  0  0  0  0  0  0  0  0  0
   -0.5300   15.7390   -4.5390 C   0  0  1  0  0  0  0  0  0  0  0  0
   -0.3070   17.0010   -5.3870 C   0  0  0  0  0  0  0  0  0  0  0  0
   -1.8370   17.8010   -5.7190 P   0  0  0  0  0  0  0  0  0  0  0  0
   -1.6630   18.5100   -7.0680 O   0  0  0  0  0  0  0  0  0  0  0  0
   -3.0100   16.9490   -6.5970 O   0  0  0  0  0  0  0  0  0  0  0  0
   -2.2250   19.1820   -5.0150 O   0  0  0  0  0  0  0  0  0  0  0  0
   -0.2830   19.0100   -7.6600 P   0  0  0  0  0  0  0  0  0  0  0  0
   -0.7990   20.3990   -8.0810 O   0  0  0  0  0  0  0  0  0  0  0  0
    0.9390   19.7080   -6.7940 O   0  0  0  0  0  0  0  0  0  0  0  0
    0.1430   18.5160   -9.1320 O   0  0  0  0  0  0  0  0  0  0  0  0
  2  1  1  6
  2  3  1  0
  2  4  1  0
  4  5  1  1
  3  6  1  0
  4  7  1  0
  6  7  1  0
  7  8  1  6
  8  9  1  0
  9 10  1  0
  9 11  1  0
  9 12  1  0
 10 13  1  0
 13 14  1  0
 13 15  1  0
 13 16  1  0
M  CHG  2  11  -1  15  -1
M  END
>  <%Rank>  (564) 
42.977099

>  <N_hits>  (564) 
2

>  <submitter_name>  (564) 
nan

>  <original SMILES>  (564) 
nan

>  <∆G_unbound>  (564) 
0.683631

>  <∆G_bound>  (564) 
-6.378451

>  <regarded>  (564) 
mArh-5cms_G_3_G_β,5CMS_0_H_β

>  <ref_pdb>  (564) 
nan

>  <smiles>  (564) 
[O-][PH](O)(O)O[PH]([O-])(O)CC1OCC(O)C1O

>  <submitter_email>  (564) 
nan

>  <disregarded>  (564) 


>  <LE>  (564) 
-0.44138

>  <submitter_institution>  (564) 
nan

>  <ref_mols>  (564) 
mArh-5cms_G_3_G,5CMS_0_H

>  <N_constrained_atoms>  (564) 
16.0

>  <ref_url>  (564) 
nan

>  <method>  (564) 
nan

>  <comRMSD>  (564) 
0.749646

>  <N_unconstrained_atoms>  (564) 
0.0

>  <∆∆G>  (564) 
-7.062082

>  <runtime>  (564) 
55.548008

>  <generation_date>  (564) 
nan

$$$$
mArh-x0766_1_B_α-6WOJ_0_A_β
     RDKit          3D

 28 29  0  0  0  0  0  0  0  0999 V2000
   -7.0870   26.5870  -13.6750 C   0  0  0  0  0  0  0  0  0  0  0  0
   -6.2900   26.2380  -14.7300 O   0  0  0  0  0  0  0  0  0  0  0  0
   -8.2930   26.8730  -13.8880 O   0  0  0  0  0  0  0  0  0  0  0  0
   -6.5370   26.6290  -12.3190 C   0  0  2  0  0  0  0  0  0  0  0  0
   -7.4290   25.9890  -11.2690 C   0  0  1  0  0  0  0  0  0  0  0  0
   -6.3660   28.0260  -11.7880 C   0  0  2  0  0  0  0  0  0  0  0  0
   -6.5930   25.4430  -10.1450 C   0  0  0  0  0  0  0  0  0  0  0  0
   -8.3800   27.0920  -10.9770 C   0  0  0  0  0  0  0  0  0  0  0  0
   -7.8060   28.4110  -11.5020 C   0  0  0  0  0  0  0  0  0  0  0  0
   -5.7200   28.9200  -12.8480 C   0  0  0  0  0  0  0  0  0  0  0  0
   -6.4960   23.9810   -9.8240 C   0  0  0  0  0  0  0  0  0  0  0  0
   -4.3490   28.9900  -12.8960 C   0  0  0  0  0  0  0  0  0  0  0  0
   -6.3850   29.6520  -13.7590 C   0  0  0  0  0  0  0  0  0  0  0  0
   -5.0560   23.4170   -9.7530 C   0  0  0  0  0  0  0  0  0  0  0  0
   -5.6480   30.3890  -14.6430 C   0  0  0  0  0  0  0  0  0  0  0  0
   -4.0410   30.0510  -14.1940 S   0  0  0  0  0  0  0  0  0  0  0  0
   -4.6500   22.6360   -8.5280 C   0  0  0  0  0  0  0  0  0  0  0  0
   -3.2200   22.1920   -8.5970 C   0  0  0  0  0  0  0  0  0  0  0  0
   -2.5120   21.2900   -7.6510 C   0  0  0  0  0  0  0  0  0  0  0  0
   -1.7330   20.3360   -8.2820 O   0  0  0  0  0  0  0  0  0  0  0  0
   -0.3300   19.9120   -7.4390 P   0  0  0  0  0  0  0  0  0  0  0  0
   -0.3260   18.8130   -6.2370 O   0  0  0  0  0  0  0  0  0  0  0  0
    1.0220   20.8620   -7.6330 O   0  0  0  0  0  0  0  0  0  0  0  0
    0.1100   18.9440   -8.5510 O   0  0  0  0  0  0  0  0  0  0  0  0
   -1.4990   17.9630   -5.7240 P   0  0  0  0  0  0  0  0  0  0  0  0
   -0.6720   16.6160   -5.4670 O   0  0  0  0  0  0  0  0  0  0  0  0
   -1.7450   19.0600   -4.5290 O   0  0  0  0  0  0  0  0  0  0  0  0
   -2.3240   18.2070   -7.1530 O   0  0  0  0  0  0  0  0  0  0  0  0
  1  2  1  0
  1  3  2  0
  4  1  1  6
  4  5  1  0
  4  6  1  0
  5  7  1  1
  5  8  1  0
  6  9  1  0
  8  9  1  0
  6 10  1  6
  7 11  1  0
 10 12  2  0
 10 13  1  0
 11 14  1  0
 13 15  2  0
 12 16  1  0
 15 16  1  0
 14 17  1  0
 17 18  1  0
 18 19  1  0
 19 20  1  0
 20 21  1  0
 21 22  1  0
 21 23  1  0
 21 24  1  0
 22 25  1  0
 25 26  1  0
 25 27  1  0
 25 28  1  0
M  CHG  2  23  -1  27  -1
M  END
>  <%Rank>  (565) 
43.053435

>  <N_hits>  (565) 
2

>  <submitter_name>  (565) 
nan

>  <original SMILES>  (565) 
nan

>  <∆G_unbound>  (565) 
1.207952

>  <∆G_bound>  (565) 
-12.113034

>  <regarded>  (565) 
mArh-x0766_1_B_α,6WOJ_0_A_β

>  <ref_pdb>  (565) 
nan

>  <smiles>  (565) 
O=C(O)C1C(CCCCCCO[PH]([O-])(O)O[PH]([O-])(O)O)CCC1c1ccsc1

>  <submitter_email>  (565) 
nan

>  <disregarded>  (565) 


>  <LE>  (565) 
-0.475749

>  <submitter_institution>  (565) 
nan

>  <ref_mols>  (565) 
mArh-x0766_1_B,6WOJ_0_A

>  <N_constrained_atoms>  (565) 
22.0

>  <ref_url>  (565) 
nan

>  <method>  (565) 
nan

>  <comRMSD>  (565) 
0.75019

>  <N_unconstrained_atoms>  (565) 
6.0

>  <∆∆G>  (565) 
-13.320986

>  <runtime>  (565) 
37.071858

>  <generation_date>  (565) 
nan

$$$$
mArh-x0950_0_A_α-5CMS_0_K_γ
     RDKit          3D

 13 13  0  0  0  0  0  0  0  0999 V2000
    2.6340   13.5040   -4.3820 C   0  0  0  0  0  0  0  0  0  0  0  0
    1.2250   12.9550   -4.5950 C   0  0  1  0  0  0  0  0  0  0  0  0
    1.3800   11.9930   -5.6270 O   0  0  0  0  0  0  0  0  0  0  0  0
    0.8420   12.2200   -3.2690 C   0  0  0  0  0  0  0  0  0  0  0  0
    0.1330   13.9740   -5.0760 C   0  0  2  0  0  0  0  0  0  0  0  0
    0.3060   11.1240   -3.1910 O   0  0  0  0  0  0  0  0  0  0  0  0
    1.1520   12.8960   -2.1310 O   0  0  0  0  0  0  0  0  0  0  0  0
    0.0260   15.4620   -4.7060 C   0  0  2  0  0  0  0  0  0  0  0  0
   -1.2260   13.6520   -4.5450 C   0  0  1  0  0  0  0  0  0  0  0  0
   -1.3820   12.2460   -4.6030 O   0  0  0  0  0  0  0  0  0  0  0  0
    1.0770   16.4750   -5.0570 C   0  0  0  0  0  0  0  0  0  0  0  0
   -1.0970   14.2720   -3.1430 C   0  0  0  0  0  0  0  0  0  0  0  0
   -0.2090   15.4020   -3.2930 O   0  0  0  0  0  0  0  0  0  0  0  0
  2  1  1  1
  2  3  1  0
  2  4  1  0
  5  2  1  1
  4  6  2  0
  4  7  1  0
  5  8  1  0
  5  9  1  0
  9 10  1  1
  8 11  1  1
  9 12  1  0
  8 13  1  0
 12 13  1  0
M  END
>  <%Rank>  (566) 
43.129771

>  <N_hits>  (566) 
2

>  <submitter_name>  (566) 
nan

>  <original SMILES>  (566) 
nan

>  <∆G_unbound>  (566) 
0.647831

>  <∆G_bound>  (566) 
-1.967543

>  <regarded>  (566) 
mArh-x0950_0_A_α,5CMS_0_K_γ

>  <ref_pdb>  (566) 
nan

>  <smiles>  (566) 
CC1OCC(O)C1[C@](C)(O)C(=O)O

>  <submitter_email>  (566) 
nan

>  <disregarded>  (566) 


>  <LE>  (566) 
-0.201183

>  <submitter_institution>  (566) 
nan

>  <ref_mols>  (566) 
mArh-x0950_0_A,5CMS_0_K

>  <N_constrained_atoms>  (566) 
13.0

>  <ref_url>  (566) 
nan

>  <method>  (566) 
nan

>  <comRMSD>  (566) 
0.554658

>  <N_unconstrained_atoms>  (566) 
0.0

>  <∆∆G>  (566) 
-2.615374

>  <runtime>  (566) 
25.566542

>  <generation_date>  (566) 
nan

$$$$
mArh-x0228_0_B_β-mArh-5cms_M_12_M_γ
     RDKit          3D

 24 25  0  0  0  0  0  0  0  0999 V2000
   -6.3710   25.6450  -13.9870 N   0  0  0  0  0  0  0  0  0  0  0  0
   -5.4040   25.2760  -13.0380 C   0  0  0  0  0  0  0  0  0  0  0  0
   -4.0600   25.6500  -13.2280 C   0  0  0  0  0  0  0  0  0  0  0  0
   -5.7910   24.5370  -11.9050 C   0  0  0  0  0  0  0  0  0  0  0  0
   -3.8020   26.3720  -14.3810 O   0  0  0  0  0  0  0  0  0  0  0  0
   -4.8600   24.1530  -10.9420 C   0  0  0  0  0  0  0  0  0  0  0  0
   -3.1380   25.2690  -12.2670 C   0  0  0  0  0  0  0  0  0  0  0  0
   -2.4470   26.6580  -14.7290 C   0  0  0  0  0  0  0  0  0  0  0  0
   -5.2520   23.3480   -9.6960 C   0  0  0  0  0  0  0  0  0  0  0  0
   -3.5700   24.5310  -11.1520 C   0  0  0  0  0  0  0  0  0  0  0  0
   -4.2020   23.1260   -8.5660 C   0  0  0  0  0  0  0  0  0  0  0  0
   -3.7730   21.6390   -8.4460 C   0  0  0  0  0  0  0  0  0  0  0  0
   -3.2480   21.0830   -7.0640 C   0  0  0  0  0  0  0  0  0  0  0  0
   -2.5110   19.6810   -7.0420 C   0  0  0  0  0  0  0  0  0  0  0  0
   -1.5400   19.4030   -5.8970 C   0  0  0  0  0  0  0  0  0  0  0  0
   -0.5810   18.1800   -6.0730 C   0  0  0  0  0  0  0  0  0  0  0  0
   -0.8830   16.8900   -5.2570 C   0  0  0  0  0  0  0  0  0  0  0  0
    0.2200   15.9120   -4.7370 C   0  0  1  0  0  0  0  0  0  0  0  0
    0.1140   15.7670   -3.3040 O   0  0  0  0  0  0  0  0  0  0  0  0
    0.1580   14.4480   -5.1970 C   0  0  1  0  0  0  0  0  0  0  0  0
    1.2920   13.6600   -4.8580 O   0  0  0  0  0  0  0  0  0  0  0  0
   -0.7300   14.6120   -3.0590 C   0  0  0  0  0  0  0  0  0  0  0  0
   -1.0590   14.0030   -4.4170 C   0  0  2  0  0  0  0  0  0  0  0  0
   -1.0770   12.5670   -4.3930 O   0  0  0  0  0  0  0  0  0  0  0  0
  1  2  1  0
  2  3  2  0
  2  4  1  0
  3  5  1  0
  4  6  2  0
  3  7  1  0
  5  8  1  0
  6  9  1  0
  6 10  1  0
  7 10  2  0
  9 11  1  0
 11 12  1  0
 12 13  1  0
 13 14  1  0
 14 15  1  0
 15 16  1  0
 16 17  1  0
 18 17  1  6
 18 19  1  0
 18 20  1  0
 20 21  1  1
 19 22  1  0
 20 23  1  0
 22 23  1  0
 23 24  1  1
M  END
>  <%Rank>  (567) 
43.206107

>  <N_hits>  (567) 
2

>  <submitter_name>  (567) 
nan

>  <original SMILES>  (567) 
nan

>  <∆G_unbound>  (567) 
-0.189084

>  <∆G_bound>  (567) 
-8.511868

>  <regarded>  (567) 
mArh-x0228_0_B_β,mArh-5cms_M_12_M_γ

>  <ref_pdb>  (567) 
nan

>  <smiles>  (567) 
COc1ccc(CCCCCCCCC2OCC(O)C2O)cc1N

>  <submitter_email>  (567) 
nan

>  <disregarded>  (567) 


>  <LE>  (567) 
-0.346783

>  <submitter_institution>  (567) 
nan

>  <ref_mols>  (567) 
mArh-x0228_0_B,mArh-5cms_M_12_M

>  <N_constrained_atoms>  (567) 
18.0

>  <ref_url>  (567) 
nan

>  <method>  (567) 
nan

>  <comRMSD>  (567) 
0.580485

>  <N_unconstrained_atoms>  (567) 
6.0

>  <∆∆G>  (567) 
-8.322783

>  <runtime>  (567) 
46.913184

>  <generation_date>  (567) 
nan

$$$$
mArh-x0685_0_A_α-5CB5_0_F_α
     RDKit          3D

 28 29  0  0  0  0  0  0  0  0999 V2000
   -6.2040   14.9330    2.2720 N   0  0  0  0  0  0  0  0  0  0  0  0
   -7.6290   14.6490    2.2990 C   0  0  0  0  0  0  0  0  0  0  0  0
   -7.8990   13.3930    3.1140 C   0  0  0  0  0  0  0  0  0  0  0  0
   -5.5140   15.0010    1.0480 C   0  0  0  0  0  0  0  0  0  0  0  0
   -4.1190   15.0580    1.0800 C   0  0  0  0  0  0  0  0  0  0  0  0
   -6.1850   15.0270   -0.1150 N   0  0  0  0  0  0  0  0  0  0  0  0
   -3.4020   15.1590   -0.1170 C   0  0  0  0  0  0  0  0  0  0  0  0
   -5.4740   15.1310   -1.2680 C   0  0  0  0  0  0  0  0  0  0  0  0
   -4.0890   15.2070   -1.3280 C   0  0  0  0  0  0  0  0  0  0  0  0
   -3.3880   15.3450   -2.5910 C   0  0  0  0  0  0  0  0  0  0  0  0
   -2.7360   15.6090   -3.6010 C   0  0  0  0  0  0  0  0  0  0  0  0
   -1.8120   16.0090   -4.7280 C   0  0  0  0  0  0  0  0  0  0  0  0
   -2.2730   17.1670   -5.6690 C   0  0  0  0  0  0  0  0  0  0  0  0
   -1.7100   18.6060   -5.4020 C   0  0  0  0  0  0  0  0  0  0  0  0
   -2.1600   19.7070   -6.4260 C   0  0  0  0  0  0  0  0  0  0  0  0
   -3.5030   20.4290   -6.1140 C   0  0  0  0  0  0  0  0  0  0  0  0
   -3.6270   21.7560   -6.6370 O   0  0  0  0  0  0  0  0  0  0  0  0
   -4.6650   21.8710   -7.6150 C   0  0  1  0  0  0  0  0  0  0  0  0
   -4.7010   23.2630   -8.2860 C   0  0  1  0  0  0  0  0  0  0  0  0
   -4.3410   21.0330   -8.6850 O   0  0  0  0  0  0  0  0  0  0  0  0
   -4.2890   24.3870   -7.5860 O   0  0  0  0  0  0  0  0  0  0  0  0
   -3.2950   21.7280   -9.3890 C   0  0  1  0  0  0  0  0  0  0  0  0
   -3.7500   23.1640   -9.4430 C   0  0  1  0  0  0  0  0  0  0  0  0
   -1.9830   21.5370   -8.6320 C   0  0  0  0  0  0  0  0  0  0  0  0
   -4.4290   23.4340  -10.6750 O   0  0  0  0  0  0  0  0  0  0  0  0
   -4.8470   24.3760   -6.3300 C   0  0  1  0  0  0  0  0  0  0  0  0
   -4.4780   25.6730   -5.6460 C   0  0  0  0  0  0  0  0  0  0  0  0
   -6.1990   24.2010   -6.5910 O   0  0  0  0  0  0  0  0  0  0  0  0
  1  2  1  0
  2  3  1  0
  1  4  1  0
  4  5  2  0
  4  6  1  0
  5  7  1  0
  6  8  2  0
  7  9  2  0
  8  9  1  0
  9 10  1  0
 10 11  3  0
 11 12  1  0
 12 13  1  0
 13 14  1  0
 14 15  1  0
 15 16  1  0
 16 17  1  0
 18 17  1  1
 18 19  1  0
 18 20  1  0
 19 21  1  1
 20 22  1  0
 19 23  1  0
 22 23  1  0
 22 24  1  1
 23 25  1  6
 21 26  1  0
 26 27  1  6
 26 28  1  0
M  END
>  <%Rank>  (568) 
43.282443

>  <N_hits>  (568) 
2

>  <submitter_name>  (568) 
nan

>  <original SMILES>  (568) 
nan

>  <∆G_unbound>  (568) 
0.280027

>  <∆G_bound>  (568) 
-10.218011

>  <regarded>  (568) 
mArh-x0685_0_A_α,5CB5_0_F_α

>  <ref_pdb>  (568) 
nan

>  <smiles>  (568) 
CCNc1ccc(C#CCCCCCOC2OC(C)C(O)C2O[C@@H](C)O)cn1

>  <submitter_email>  (568) 
nan

>  <disregarded>  (568) 


>  <LE>  (568) 
-0.37493

>  <submitter_institution>  (568) 
nan

>  <ref_mols>  (568) 
mArh-x0685_0_A,5CB5_0_F

>  <N_constrained_atoms>  (568) 
23.0

>  <ref_url>  (568) 
nan

>  <method>  (568) 
nan

>  <comRMSD>  (568) 
0.7461

>  <N_unconstrained_atoms>  (568) 
5.0

>  <∆∆G>  (568) 
-10.498038

>  <runtime>  (568) 
77.729832

>  <generation_date>  (568) 
nan

$$$$
5CB5_0_H_β-5CB5_0_A_δ
     RDKit          3D

 21 22  0  0  0  0  0  0  0  0999 V2000
   -1.5260   21.2660   -7.4550 O   0  0  0  0  0  0  0  0  0  0  0  0
   -0.7410   20.0100   -7.8100 P   0  0  0  0  0  0  0  0  0  0  0  0
   -1.1650   19.3660   -6.2970 O   0  0  0  0  0  0  0  0  0  0  0  0
    0.6370   20.8370   -7.9030 O   0  0  0  0  0  0  0  0  0  0  0  0
   -0.1490   18.6890   -8.3420 O   0  0  0  0  0  0  0  0  0  0  0  0
   -1.5650   17.8900   -6.0630 P   0  0  0  0  0  0  0  0  0  0  0  0
    0.0340   17.5130   -6.5570 O   0  0  0  0  0  0  0  0  0  0  0  0
   -2.7230   18.0200   -7.1360 O   0  0  0  0  0  0  0  0  0  0  0  0
   -1.7760   17.8280   -4.4860 O   0  0  0  0  0  0  0  0  0  0  0  0
   -1.5380   16.5730   -3.8990 C   0  0  0  0  0  0  0  0  0  0  0  0
   -2.7710   16.1070   -3.1200 C   0  0  0  0  0  0  0  0  0  0  0  0
   -2.9130   14.7060   -2.6690 C   0  0  1  0  0  0  0  0  0  0  0  0
   -1.6240   14.2510   -2.2020 N   0  0  0  0  0  0  0  0  0  0  0  0
   -3.7380   14.8510   -1.4370 N   0  0  0  0  0  0  0  0  0  0  0  0
   -1.5170   14.9010   -0.9620 C   0  0  1  0  0  0  0  0  0  0  0  0
   -2.8750   14.5730   -0.3360 C   0  0  1  0  0  0  0  0  0  0  0  0
   -0.5130   14.3450   -0.1170 N   0  0  0  0  0  0  0  0  0  0  0  0
   -2.9430   15.4740    0.8360 C   0  0  1  0  0  0  0  0  0  0  0  0
   -4.2350   15.4640    1.5170 N   0  0  0  0  0  0  0  0  0  0  0  0
   -0.6260   14.9860    1.1800 C   0  0  0  0  0  0  0  0  0  0  0  0
   -1.9590   14.9480    1.7210 N   0  0  0  0  0  0  0  0  0  0  0  0
  1  2  1  0
  2  3  1  0
  2  4  1  0
  2  5  1  0
  3  6  1  0
  6  7  1  0
  6  8  1  0
  6  9  1  0
  9 10  1  0
 10 11  1  0
 12 11  1  1
 12 13  1  0
 12 14  1  0
 15 13  1  6
 16 14  1  6
 15 16  1  0
 15 17  1  0
 16 18  1  0
 18 19  1  1
 17 20  1  0
 18 21  1  0
 20 21  1  0
M  CHG  2   4  -1   8  -1
M  END
>  <%Rank>  (569) 
43.358779

>  <N_hits>  (569) 
2

>  <submitter_name>  (569) 
nan

>  <original SMILES>  (569) 
nan

>  <∆G_unbound>  (569) 
4.304915

>  <∆G_bound>  (569) 
-6.751431

>  <regarded>  (569) 
5CB5_0_H_β,5CB5_0_A_δ

>  <ref_pdb>  (569) 
nan

>  <smiles>  (569) 
NC1NCNC2NC(CCO[PH]([O-])(O)O[PH]([O-])(O)O)NC12

>  <submitter_email>  (569) 
nan

>  <disregarded>  (569) 


>  <LE>  (569) 
-0.526493

>  <submitter_institution>  (569) 
nan

>  <ref_mols>  (569) 
5CB5_0_H,5CB5_0_A

>  <N_constrained_atoms>  (569) 
19.0

>  <ref_url>  (569) 
nan

>  <method>  (569) 
nan

>  <comRMSD>  (569) 
0.807318

>  <N_unconstrained_atoms>  (569) 
2.0

>  <∆∆G>  (569) 
-11.056346

>  <runtime>  (569) 
31.31058

>  <generation_date>  (569) 
nan

$$$$
mArh-5cms_F_6_F_α-3EW5_0_A_α
     RDKit          3D

 18 18  0  0  0  0  0  0  0  0999 V2000
   -2.2890   21.7790   -8.2660 C   0  0  1  0  0  0  0  0  0  0  0  0
   -1.1770   21.4380   -7.5730 O   0  0  0  0  0  0  0  0  0  0  0  0
   -0.1340   20.3840   -7.8750 P   0  0  0  0  0  0  0  0  0  0  0  0
   -3.4800   22.1240   -7.3260 C   0  0  2  0  0  0  0  0  0  0  0  0
   -2.2890   22.8160   -9.3440 C   0  0  2  0  0  0  0  0  0  0  0  0
   -4.8040   22.2420   -8.0120 C   0  0  0  0  0  0  0  0  0  0  0  0
   -3.2170   23.4660   -6.9040 O   0  0  0  0  0  0  0  0  0  0  0  0
   -2.9550   22.2800  -10.5010 O   0  0  0  0  0  0  0  0  0  0  0  0
   -1.1390   23.5180   -9.9910 C   0  0  1  0  0  0  0  0  0  0  0  0
    0.1200   23.0610  -10.0170 O   0  0  0  0  0  0  0  0  0  0  0  0
    1.0790   21.4720   -8.0220 O   0  0  0  0  0  0  0  0  0  0  0  0
   -0.9940   19.8630   -9.1180 O   0  0  0  0  0  0  0  0  0  0  0  0
   -0.2880   19.5660   -6.4200 O   0  0  0  0  0  0  0  0  0  0  0  0
   -5.9110   21.9640   -7.2470 O   0  0  0  0  0  0  0  0  0  0  0  0
   -3.0690   23.3660  -11.3030 C   0  0  2  0  0  0  0  0  0  0  0  0
   -1.6540   23.9090  -11.3640 C   0  0  1  0  0  0  0  0  0  0  0  0
   -3.9930   24.2490  -10.7060 O   0  0  0  0  0  0  0  0  0  0  0  0
   -1.6910   25.2800  -11.6120 O   0  0  0  0  0  0  0  0  0  0  0  0
  1  2  1  1
  2  3  1  0
  1  4  1  0
  1  5  1  0
  4  6  1  0
  4  7  1  6
  5  8  1  6
  5  9  1  0
  9 10  1  6
  3 11  1  0
  3 12  1  0
  3 13  1  0
  6 14  1  0
  8 15  1  0
  9 16  1  0
 15 16  1  0
 15 17  1  1
 16 18  1  1
M  CHG  1  12  -1
M  END
>  <%Rank>  (570) 
43.435115

>  <N_hits>  (570) 
2

>  <submitter_name>  (570) 
nan

>  <original SMILES>  (570) 
nan

>  <∆G_unbound>  (570) 
3.382259

>  <∆G_bound>  (570) 
-1.098069

>  <regarded>  (570) 
mArh-5cms_F_6_F_α,3EW5_0_A_α

>  <ref_pdb>  (570) 
nan

>  <smiles>  (570) 
[O-][PH](O)(O)OC(C1OC(O)C(O)C1O)[C@@H](O)CO

>  <submitter_email>  (570) 
nan

>  <disregarded>  (570) 


>  <LE>  (570) 
-0.248907

>  <submitter_institution>  (570) 
nan

>  <ref_mols>  (570) 
mArh-5cms_F_6_F,3EW5_0_A

>  <N_constrained_atoms>  (570) 
18.0

>  <ref_url>  (570) 
nan

>  <method>  (570) 
nan

>  <comRMSD>  (570) 
0.702307

>  <N_unconstrained_atoms>  (570) 
0.0

>  <∆∆G>  (570) 
-4.480327

>  <runtime>  (570) 
26.560249

>  <generation_date>  (570) 
nan

$$$$
mArh-5cms_K_10_K_β-mArh-5cms_N_13_N_γ
     RDKit          3D

 16 16  0  0  0  0  0  0  0  0999 V2000
   -1.5750   20.3800   -8.4010 O   0  0  0  0  0  0  0  0  0  0  0  0
   -0.2190   19.8280   -7.7920 P   0  0  0  0  0  0  0  0  0  0  0  0
   -0.6160   19.2970   -6.3660 O   0  0  0  0  0  0  0  0  0  0  0  0
    0.8680   20.8270   -7.8010 O   0  0  0  0  0  0  0  0  0  0  0  0
    0.0560   18.5530   -8.7210 O   0  0  0  0  0  0  0  0  0  0  0  0
   -1.4270   17.9830   -6.0980 P   0  0  2  0  0  0  0  0  0  0  0  0
   -0.3070   16.8580   -5.8790 O   0  0  0  0  0  0  0  0  0  0  0  0
   -2.5390   17.6770   -7.0220 O   0  0  0  0  0  0  0  0  0  0  0  0
   -1.9440   18.2870   -4.6320 O   0  0  0  0  0  0  0  0  0  0  0  0
   -0.4540   15.8610   -4.8890 C   0  0  2  0  0  0  0  0  0  0  0  0
    0.4860   16.0640   -3.8410 O   0  0  0  0  0  0  0  0  0  0  0  0
   -0.2650   14.3920   -5.3370 C   0  0  1  0  0  0  0  0  0  0  0  0
    0.8850   14.1140   -6.1390 O   0  0  0  0  0  0  0  0  0  0  0  0
    0.6220   14.8120   -3.1600 C   0  0  0  0  0  0  0  0  0  0  0  0
   -0.0010   13.7090   -4.0150 C   0  0  2  0  0  0  0  0  0  0  0  0
    0.8740   12.6000   -4.1710 O   0  0  0  0  0  0  0  0  0  0  0  0
  1  2  1  0
  2  3  1  0
  2  4  2  0
  2  5  1  0
  3  6  1  0
  6  7  1  0
  6  8  2  0
  6  9  1  1
 10  7  1  6
 10 11  1  0
 10 12  1  0
 12 13  1  6
 11 14  1  0
 12 15  1  0
 14 15  1  0
 15 16  1  6
M  END
>  <%Rank>  (571) 
43.51145

>  <N_hits>  (571) 
2

>  <submitter_name>  (571) 
nan

>  <original SMILES>  (571) 
nan

>  <∆G_unbound>  (571) 
1.157846

>  <∆G_bound>  (571) 
-7.40808

>  <regarded>  (571) 
mArh-5cms_K_10_K_β,mArh-5cms_N_13_N_γ

>  <ref_pdb>  (571) 
nan

>  <smiles>  (571) 
O=P(O)(O)OP(=O)(O)OC1OCC(O)C1O

>  <submitter_email>  (571) 
nan

>  <disregarded>  (571) 


>  <LE>  (571) 
-0.53537

>  <submitter_institution>  (571) 
nan

>  <ref_mols>  (571) 
mArh-5cms_K_10_K,mArh-5cms_N_13_N

>  <N_constrained_atoms>  (571) 
16.0

>  <ref_url>  (571) 
nan

>  <method>  (571) 
nan

>  <comRMSD>  (571) 
0.801953

>  <N_unconstrained_atoms>  (571) 
0.0

>  <∆∆G>  (571) 
-8.565925

>  <runtime>  (571) 
26.005617

>  <generation_date>  (571) 
nan

$$$$
5CB5_0_J_β-5CMS_0_K_δ
     RDKit          3D

 21 22  0  0  0  0  0  0  0  0999 V2000
   -1.2410   20.3680   -9.1670 O   0  0  0  0  0  0  0  0  0  0  0  0
   -0.7960   19.8770   -7.8160 P   0  0  0  0  0  0  0  0  0  0  0  0
   -0.5890   19.2290   -6.4590 O   0  0  0  0  0  0  0  0  0  0  0  0
    0.3120   21.0460   -7.6450 O   0  0  0  0  0  0  0  0  0  0  0  0
   -0.2400   18.5000   -8.5680 O   0  0  0  0  0  0  0  0  0  0  0  0
   -1.0840   17.8980   -5.8920 P   0  0  0  0  0  0  0  0  0  0  0  0
   -1.3600   16.4460   -5.4080 O   0  0  0  0  0  0  0  0  0  0  0  0
   -2.3240   17.8210   -6.9640 O   0  0  0  0  0  0  0  0  0  0  0  0
   -1.4470   18.5660   -4.4570 O   0  0  0  0  0  0  0  0  0  0  0  0
   -2.3250   16.1060   -4.4570 C   0  0  0  0  0  0  0  0  0  0  0  0
   -1.7800   16.0690   -3.0600 C   0  0  0  0  0  0  0  0  0  0  0  0
   -2.0440   14.8050   -2.3690 N   0  0  0  0  0  0  0  0  0  0  0  0
   -1.7690   15.0600   -0.9780 C   0  0  1  0  0  0  0  0  0  0  0  0
   -3.4800   14.6290   -2.4680 C   0  0  0  0  0  0  0  0  0  0  0  0
   -2.9760   14.3780   -0.3260 C   0  0  2  0  0  0  0  0  0  0  0  0
   -4.0050   14.9330   -1.1290 N   0  0  0  0  0  0  0  0  0  0  0  0
   -0.6010   14.3970   -0.4410 N   0  0  0  0  0  0  0  0  0  0  0  0
   -0.5910   14.6840    0.9910 C   0  0  0  0  0  0  0  0  0  0  0  0
   -2.9940   14.7630    1.1370 C   0  0  2  0  0  0  0  0  0  0  0  0
   -4.1200   15.6760    1.3450 N   0  0  0  0  0  0  0  0  0  0  0  0
   -1.7420   15.4400    1.3890 N   0  0  0  0  0  0  0  0  0  0  0  0
  1  2  1  0
  2  3  1  0
  2  4  1  0
  2  5  1  0
  3  6  1  0
  6  7  1  0
  6  8  1  0
  6  9  1  0
  7 10  1  0
 10 11  1  0
 11 12  1  0
 12 13  1  0
 12 14  1  0
 13 15  1  0
 14 16  1  0
 15 16  1  6
 13 17  1  1
 17 18  1  0
 15 19  1  0
 19 20  1  6
 18 21  1  0
 19 21  1  0
M  CHG  2   4  -1   8  -1
M  END
>  <%Rank>  (572) 
43.587786

>  <N_hits>  (572) 
2

>  <submitter_name>  (572) 
nan

>  <original SMILES>  (572) 
nan

>  <∆G_unbound>  (572) 
0.88229

>  <∆G_bound>  (572) 
-7.126335

>  <regarded>  (572) 
5CB5_0_J_β,5CMS_0_K_δ

>  <ref_pdb>  (572) 
nan

>  <smiles>  (572) 
NC1NCNC2C1NCN2CCO[PH]([O-])(O)O[PH]([O-])(O)O

>  <submitter_email>  (572) 
nan

>  <disregarded>  (572) 


>  <LE>  (572) 
-0.381363

>  <submitter_institution>  (572) 
nan

>  <ref_mols>  (572) 
5CB5_0_J,5CMS_0_K

>  <N_constrained_atoms>  (572) 
19.0

>  <ref_url>  (572) 
nan

>  <method>  (572) 
nan

>  <comRMSD>  (572) 
0.736531

>  <N_unconstrained_atoms>  (572) 
2.0

>  <∆∆G>  (572) 
-8.008625

>  <runtime>  (572) 
35.496915

>  <generation_date>  (572) 
nan

$$$$
mArh-EU0291_0_A_α-5CMS_0_A_γ
     RDKit          3D

 18 20  0  0  0  0  0  0  0  0999 V2000
   -3.9770   14.6340   -2.5420 O   0  0  0  0  0  0  0  0  0  0  0  0
   -3.6430   15.0480   -1.4400 C   0  0  0  0  0  0  0  0  0  0  0  0
   -4.6280   15.4080   -0.5170 N   0  0  0  0  0  0  0  0  0  0  0  0
   -2.1520   15.2040   -1.0630 C   0  0  1  0  0  0  0  0  0  0  0  0
   -2.0730   14.7600    0.4380 C   0  0  0  0  0  0  0  0  0  0  0  0
   -4.3270   15.3970    0.7340 C   0  0  0  0  0  0  0  0  0  0  0  0
   -1.0020   14.6720   -2.0590 C   0  0  2  0  0  0  0  0  0  0  0  0
   -3.1310   15.0650    1.2620 N   0  0  0  0  0  0  0  0  0  0  0  0
    0.1180   14.0380   -1.2640 C   0  0  0  0  0  0  0  0  0  0  0  0
   -1.0170   14.1160    0.8980 C   0  0  0  0  0  0  0  0  0  0  0  0
   -0.3700   15.8510   -2.7050 O   0  0  0  0  0  0  0  0  0  0  0  0
   -1.3480   13.8210   -3.3540 C   0  0  2  0  0  0  0  0  0  0  0  0
   -1.3280   12.4010   -3.2180 O   0  0  0  0  0  0  0  0  0  0  0  0
    0.0660   13.8010    0.0490 C   0  0  0  0  0  0  0  0  0  0  0  0
    0.2800   15.5030   -3.9660 C   0  0  1  0  0  0  0  0  0  0  0  0
   -0.2830   14.1650   -4.4170 C   0  0  1  0  0  0  0  0  0  0  0  0
    0.0890   16.6350   -4.9770 C   0  0  0  0  0  0  0  0  0  0  0  0
    0.7040   13.1430   -4.5650 O   0  0  0  0  0  0  0  0  0  0  0  0
  1  2  2  0
  2  3  1  0
  4  2  1  6
  4  5  1  0
  3  6  2  0
  4  7  1  0
  5  8  1  0
  6  8  1  0
  7  9  1  1
  5 10  2  0
  7 11  1  0
  7 12  1  0
 12 13  1  1
  9 14  2  0
 10 14  1  0
 11 15  1  0
 12 16  1  0
 15 16  1  0
 15 17  1  6
 16 18  1  1
M  END
>  <%Rank>  (573) 
43.664122

>  <N_hits>  (573) 
2

>  <submitter_name>  (573) 
nan

>  <original SMILES>  (573) 
nan

>  <∆G_unbound>  (573) 
0.980667

>  <∆G_bound>  (573) 
-4.41124

>  <regarded>  (573) 
mArh-EU0291_0_A_α,5CMS_0_A_γ

>  <ref_pdb>  (573) 
nan

>  <smiles>  (573) 
CC1OC2(C=CC=C3NC=NC(=O)C32)C(O)C1O

>  <submitter_email>  (573) 
nan

>  <disregarded>  (573) 


>  <LE>  (573) 
-0.29955

>  <submitter_institution>  (573) 
nan

>  <ref_mols>  (573) 
mArh-EU0291_0_A,5CMS_0_A

>  <N_constrained_atoms>  (573) 
18.0

>  <ref_url>  (573) 
nan

>  <method>  (573) 
nan

>  <comRMSD>  (573) 
0.7281

>  <N_unconstrained_atoms>  (573) 
0.0

>  <∆∆G>  (573) 
-5.391908

>  <runtime>  (573) 
32.172962

>  <generation_date>  (573) 
nan

$$$$
mArh-5cms_J_9_J_β-5CB5_0_H_γ
     RDKit          3D

 16 16  0  0  0  0  0  0  0  0999 V2000
    0.1150   21.2020   -7.7300 O   0  0  0  0  0  0  0  0  0  0  0  0
   -0.2270   19.6480   -7.6950 P   0  0  0  0  0  0  0  0  0  0  0  0
   -1.1090   19.4290   -6.4240 O   0  0  0  0  0  0  0  0  0  0  0  0
    0.9090   18.7400   -7.7820 O   0  0  0  0  0  0  0  0  0  0  0  0
   -1.1950   19.5230   -8.9180 O   0  0  0  0  0  0  0  0  0  0  0  0
   -1.5710   17.9750   -6.0330 P   0  0  2  0  0  0  0  0  0  0  0  0
   -0.3600   17.0680   -5.4830 O   0  0  0  0  0  0  0  0  0  0  0  0
   -2.5200   17.3400   -6.9620 O   0  0  0  0  0  0  0  0  0  0  0  0
   -2.2760   18.3190   -4.6790 O   0  0  0  0  0  0  0  0  0  0  0  0
   -0.7340   16.0220   -4.5850 C   0  0  2  0  0  0  0  0  0  0  0  0
    0.0240   15.9680   -3.3680 O   0  0  0  0  0  0  0  0  0  0  0  0
   -0.6500   14.5750   -5.0880 C   0  0  1  0  0  0  0  0  0  0  0  0
    0.6710   14.0920   -5.3910 O   0  0  0  0  0  0  0  0  0  0  0  0
   -0.3720   14.7270   -2.7480 C   0  0  0  0  0  0  0  0  0  0  0  0
   -1.0750   13.8870   -3.8190 C   0  0  2  0  0  0  0  0  0  0  0  0
   -0.6580   12.5350   -3.8350 O   0  0  0  0  0  0  0  0  0  0  0  0
  1  2  1  0
  2  3  1  0
  2  4  2  0
  2  5  1  0
  3  6  1  0
  6  7  1  0
  6  8  2  0
  6  9  1  1
 10  7  1  6
 10 11  1  0
 10 12  1  0
 12 13  1  1
 11 14  1  0
 12 15  1  0
 14 15  1  0
 15 16  1  6
M  END
>  <%Rank>  (574) 
43.740458

>  <N_hits>  (574) 
2

>  <submitter_name>  (574) 
nan

>  <original SMILES>  (574) 
nan

>  <∆G_unbound>  (574) 
1.157846

>  <∆G_bound>  (574) 
-6.508736

>  <regarded>  (574) 
mArh-5cms_J_9_J_β,5CB5_0_H_γ

>  <ref_pdb>  (574) 
nan

>  <smiles>  (574) 
O=P(O)(O)OP(=O)(O)OC1OCC(O)C1O

>  <submitter_email>  (574) 
nan

>  <disregarded>  (574) 


>  <LE>  (574) 
-0.479161

>  <submitter_institution>  (574) 
nan

>  <ref_mols>  (574) 
mArh-5cms_J_9_J,5CB5_0_H

>  <N_constrained_atoms>  (574) 
16.0

>  <ref_url>  (574) 
nan

>  <method>  (574) 
nan

>  <comRMSD>  (574) 
0.774186

>  <N_unconstrained_atoms>  (574) 
0.0

>  <∆∆G>  (574) 
-7.666582

>  <runtime>  (574) 
26.750207

>  <generation_date>  (574) 
nan

$$$$
mArh-5cms_A_0_A_β-5CB5_0_B_α
     RDKit          3D

 17 17  0  0  0  0  0  0  0  0999 V2000
   -1.8330   21.0920   -8.8470 O   0  0  0  0  0  0  0  0  0  0  0  0
   -0.8060   20.2400   -7.9010 P   0  0  2  0  0  0  0  0  0  0  0  0
   -1.5100   19.7890   -6.5510 O   0  0  0  0  0  0  0  0  0  0  0  0
   -3.2060   21.5730   -8.6890 C   0  0  1  0  0  0  0  0  0  0  0  0
    0.5040   20.9170   -7.6630 O   0  0  0  0  0  0  0  0  0  0  0  0
   -0.5270   18.8350   -8.6160 O   0  0  0  0  0  0  0  0  0  0  0  0
   -3.9650   20.8790   -7.6890 O   0  0  0  0  0  0  0  0  0  0  0  0
   -3.4160   23.0950   -8.4290 C   0  0  1  0  0  0  0  0  0  0  0  0
   -1.6120   18.2690   -6.0840 P   0  0  0  0  0  0  0  0  0  0  0  0
   -4.0240   23.8270   -9.5160 O   0  0  0  0  0  0  0  0  0  0  0  0
   -5.0450   21.7490   -7.3600 C   0  0  2  0  0  0  0  0  0  0  0  0
   -4.4200   23.1400   -7.2940 C   0  0  2  0  0  0  0  0  0  0  0  0
   -0.1520   17.6670   -5.9690 O   0  0  0  0  0  0  0  0  0  0  0  0
   -2.5670   17.3840   -6.7620 O   0  0  0  0  0  0  0  0  0  0  0  0
   -1.9150   18.4630   -4.5510 O   0  0  0  0  0  0  0  0  0  0  0  0
   -5.5550   21.4470   -6.0690 O   0  0  0  0  0  0  0  0  0  0  0  0
   -5.4150   24.1270   -7.6000 O   0  0  0  0  0  0  0  0  0  0  0  0
  1  2  1  0
  2  3  1  0
  4  1  1  1
  2  5  2  0
  2  6  1  6
  4  7  1  0
  4  8  1  0
  3  9  1  0
  8 10  1  6
  7 11  1  0
  8 12  1  0
 11 12  1  0
  9 13  1  0
  9 14  2  0
  9 15  1  0
 11 16  1  1
 12 17  1  6
M  END
>  <%Rank>  (575) 
43.816794

>  <N_hits>  (575) 
2

>  <submitter_name>  (575) 
nan

>  <original SMILES>  (575) 
nan

>  <∆G_unbound>  (575) 
1.974322

>  <∆G_bound>  (575) 
-8.617178

>  <regarded>  (575) 
mArh-5cms_A_0_A_β,5CB5_0_B_α

>  <ref_pdb>  (575) 
nan

>  <smiles>  (575) 
O=P(O)(O)OP(=O)(O)OC1OC(O)C(O)C1O

>  <submitter_email>  (575) 
nan

>  <disregarded>  (575) 


>  <LE>  (575) 
-0.623029

>  <submitter_institution>  (575) 
nan

>  <ref_mols>  (575) 
mArh-5cms_A_0_A,5CB5_0_B

>  <N_constrained_atoms>  (575) 
17.0

>  <ref_url>  (575) 
nan

>  <method>  (575) 
nan

>  <comRMSD>  (575) 
0.868779

>  <N_unconstrained_atoms>  (575) 
0.0

>  <∆∆G>  (575) 
-10.5915

>  <runtime>  (575) 
28.106826

>  <generation_date>  (575) 
nan

$$$$
mArh-5cms_O_14_O_β-mArh-5lw0_B_1_B_γ
     RDKit          3D

 16 16  0  0  0  0  0  0  0  0999 V2000
   -1.4000   20.5870   -8.3620 O   0  0  0  0  0  0  0  0  0  0  0  0
   -0.2780   19.6970   -7.6590 P   0  0  0  0  0  0  0  0  0  0  0  0
   -0.9200   19.2200   -6.2870 O   0  0  0  0  0  0  0  0  0  0  0  0
    1.0080   20.4050   -7.5270 O   0  0  0  0  0  0  0  0  0  0  0  0
   -0.2100   18.4420   -8.6400 O   0  0  0  0  0  0  0  0  0  0  0  0
   -1.5070   17.7800   -5.9730 P   0  0  2  0  0  0  0  0  0  0  0  0
   -0.3220   16.7800   -5.4670 O   0  0  0  0  0  0  0  0  0  0  0  0
   -2.5210   17.2820   -6.9270 O   0  0  0  0  0  0  0  0  0  0  0  0
   -2.2160   18.0720   -4.6010 O   0  0  0  0  0  0  0  0  0  0  0  0
   -0.6490   15.6410   -4.6430 C   0  0  2  0  0  0  0  0  0  0  0  0
   -0.2850   15.7480   -3.2580 O   0  0  0  0  0  0  0  0  0  0  0  0
   -0.0580   14.2560   -4.9730 C   0  0  1  0  0  0  0  0  0  0  0  0
    1.3300   14.0440   -4.6370 O   0  0  0  0  0  0  0  0  0  0  0  0
   -0.5700   14.4370   -2.7110 C   0  0  0  0  0  0  0  0  0  0  0  0
   -0.8510   13.5250   -3.9100 C   0  0  2  0  0  0  0  0  0  0  0  0
   -0.4200   12.1860   -3.7360 O   0  0  0  0  0  0  0  0  0  0  0  0
  1  2  1  0
  2  3  1  0
  2  4  2  0
  2  5  1  0
  3  6  1  0
  6  7  1  0
  6  8  2  0
  6  9  1  1
 10  7  1  6
 10 11  1  0
 10 12  1  0
 12 13  1  1
 11 14  1  0
 12 15  1  0
 14 15  1  0
 15 16  1  1
M  END
>  <%Rank>  (576) 
43.89313

>  <N_hits>  (576) 
2

>  <submitter_name>  (576) 
nan

>  <original SMILES>  (576) 
nan

>  <∆G_unbound>  (576) 
1.157846

>  <∆G_bound>  (576) 
-7.630547

>  <regarded>  (576) 
mArh-5cms_O_14_O_β,mArh-5lw0_B_1_B_γ

>  <ref_pdb>  (576) 
nan

>  <smiles>  (576) 
O=P(O)(O)OP(=O)(O)OC1OCC(O)C1O

>  <submitter_email>  (576) 
nan

>  <disregarded>  (576) 


>  <LE>  (576) 
-0.549275

>  <submitter_institution>  (576) 
nan

>  <ref_mols>  (576) 
mArh-5cms_O_14_O,mArh-5lw0_B_1_B

>  <N_constrained_atoms>  (576) 
16.0

>  <ref_url>  (576) 
nan

>  <method>  (576) 
nan

>  <comRMSD>  (576) 
0.809642

>  <N_unconstrained_atoms>  (576) 
0.0

>  <∆∆G>  (576) 
-8.788393

>  <runtime>  (576) 
29.203078

>  <generation_date>  (576) 
nan

$$$$
5CB5_0_M_δ-5CB5_0_C_β
     RDKit          3D

 21 22  0  0  0  0  0  0  0  0999 V2000
   -3.7540   15.8780    1.3880 N   0  0  0  0  0  0  0  0  0  0  0  0
   -2.7440   14.9050    1.0550 C   0  0  1  0  0  0  0  0  0  0  0  0
   -2.6010   14.6520   -0.4230 C   0  0  2  0  0  0  0  0  0  0  0  0
   -1.4710   15.4320    1.4550 N   0  0  0  0  0  0  0  0  0  0  0  0
   -1.1970   15.1310   -0.8150 C   0  0  2  0  0  0  0  0  0  0  0  0
   -3.3870   15.3520   -1.3510 N   0  0  0  0  0  0  0  0  0  0  0  0
   -0.3680   14.5600    1.2260 C   0  0  0  0  0  0  0  0  0  0  0  0
   -1.2730   14.9850   -2.2070 N   0  0  0  0  0  0  0  0  0  0  0  0
   -2.6690   14.9590   -2.5630 C   0  0  2  0  0  0  0  0  0  0  0  0
   -0.2650   14.2590   -0.1880 N   0  0  0  0  0  0  0  0  0  0  0  0
   -2.8090   15.8280   -3.7840 C   0  0  0  0  0  0  0  0  0  0  0  0
   -1.5890   16.7350   -3.9650 C   0  0  0  0  0  0  0  0  0  0  0  0
   -1.8740   18.0440   -4.2840 O   0  0  0  0  0  0  0  0  0  0  0  0
   -1.8970   18.4700   -5.8370 P   0  0  0  0  0  0  0  0  0  0  0  0
   -1.0790   19.7470   -6.4550 O   0  0  0  0  0  0  0  0  0  0  0  0
   -0.7880   17.5060   -6.2210 O   0  0  0  0  0  0  0  0  0  0  0  0
   -2.8970   17.6430   -6.8670 O   0  0  0  0  0  0  0  0  0  0  0  0
   -0.4120   19.3870   -7.7260 P   0  0  0  0  0  0  0  0  0  0  0  0
   -1.4650   20.3420   -8.5840 O   0  0  0  0  0  0  0  0  0  0  0  0
    0.9850   20.1220   -7.3080 O   0  0  0  0  0  0  0  0  0  0  0  0
    0.2470   18.8200   -8.9480 O   0  0  0  0  0  0  0  0  0  0  0  0
  2  1  1  6
  2  3  1  0
  2  4  1  0
  3  5  1  0
  3  6  1  6
  4  7  1  0
  5  8  1  6
  6  9  1  0
  8  9  1  0
  5 10  1  0
  7 10  1  0
  9 11  1  6
 11 12  1  0
 12 13  1  0
 13 14  1  0
 14 15  1  0
 14 16  1  0
 14 17  1  0
 15 18  1  0
 18 19  1  0
 18 20  1  0
 18 21  1  0
M  CHG  2  17  -1  20  -1
M  END
>  <%Rank>  (577) 
43.969466

>  <N_hits>  (577) 
2

>  <submitter_name>  (577) 
nan

>  <original SMILES>  (577) 
nan

>  <∆G_unbound>  (577) 
2.344748

>  <∆G_bound>  (577) 
-5.899396

>  <regarded>  (577) 
5CB5_0_M_δ,5CB5_0_C_β

>  <ref_pdb>  (577) 
nan

>  <smiles>  (577) 
NC1NCNC2NC(CCO[PH]([O-])(O)O[PH]([O-])(O)O)NC12

>  <submitter_email>  (577) 
nan

>  <disregarded>  (577) 


>  <LE>  (577) 
-0.392578

>  <submitter_institution>  (577) 
nan

>  <ref_mols>  (577) 
5CB5_0_M,5CB5_0_C

>  <N_constrained_atoms>  (577) 
19.0

>  <ref_url>  (577) 
nan

>  <method>  (577) 
nan

>  <comRMSD>  (577) 
0.743115

>  <N_unconstrained_atoms>  (577) 
2.0

>  <∆∆G>  (577) 
-8.244144

>  <runtime>  (577) 
32.793043

>  <generation_date>  (577) 
nan

$$$$
mArh-x0962_0_A_α-5CB5_0_K_γ
     RDKit          3D

 16 17  0  0  0  0  0  0  0  0999 V2000
   -3.6560   15.4720   -2.7410 N   0  0  0  0  0  0  0  0  0  0  0  0
   -3.0800   14.6270   -1.7360 C   0  0  1  0  0  0  0  0  0  0  0  0
   -1.5450   14.6380   -1.8630 C   0  0  0  0  0  0  0  0  0  0  0  0
   -3.7890   14.8600   -0.4560 C   0  0  0  0  0  0  0  0  0  0  0  0
   -3.2440   15.2270    0.7420 N   0  0  0  0  0  0  0  0  0  0  0  0
   -5.1410   14.7560   -0.2040 C   0  0  0  0  0  0  0  0  0  0  0  0
   -1.1280   14.8030   -3.3190 C   0  0  1  0  0  0  0  0  0  0  0  0
   -4.2680   15.3270    1.6440 C   0  0  0  0  0  0  0  0  0  0  0  0
   -5.4290   15.0370    1.0940 N   0  0  0  0  0  0  0  0  0  0  0  0
   -0.4110   15.9980   -3.6040 O   0  0  0  0  0  0  0  0  0  0  0  0
   -0.2140   13.7120   -3.8450 C   0  0  1  0  0  0  0  0  0  0  0  0
   -0.8430   12.4740   -4.1110 O   0  0  0  0  0  0  0  0  0  0  0  0
   -0.1120   15.8250   -4.9890 C   0  0  2  0  0  0  0  0  0  0  0  0
    0.2930   14.3440   -5.1300 C   0  0  1  0  0  0  0  0  0  0  0  0
    0.8840   16.8870   -5.4260 C   0  0  0  0  0  0  0  0  0  0  0  0
    1.6650   14.0650   -5.2450 O   0  0  0  0  0  0  0  0  0  0  0  0
  2  1  1  6
  2  3  1  0
  2  4  1  0
  4  5  1  0
  4  6  2  0
  7  3  1  1
  5  8  1  0
  6  9  1  0
  8  9  2  0
  7 10  1  0
  7 11  1  0
 11 12  1  6
 10 13  1  0
 11 14  1  0
 13 14  1  0
 13 15  1  1
 14 16  1  1
M  END
>  <%Rank>  (578) 
44.045802

>  <N_hits>  (578) 
2

>  <submitter_name>  (578) 
nan

>  <original SMILES>  (578) 
nan

>  <∆G_unbound>  (578) 
1.236241

>  <∆G_bound>  (578) 
-3.244942

>  <regarded>  (578) 
mArh-x0962_0_A_α,5CB5_0_K_γ

>  <ref_pdb>  (578) 
nan

>  <smiles>  (578) 
CC1OC(CC(N)c2cnc[nH]2)C(O)C1O

>  <submitter_email>  (578) 
nan

>  <disregarded>  (578) 


>  <LE>  (578) 
-0.280074

>  <submitter_institution>  (578) 
nan

>  <ref_mols>  (578) 
mArh-x0962_0_A,5CB5_0_K

>  <N_constrained_atoms>  (578) 
15.0

>  <ref_url>  (578) 
nan

>  <method>  (578) 
nan

>  <comRMSD>  (578) 
0.61938

>  <N_unconstrained_atoms>  (578) 
1.0

>  <∆∆G>  (578) 
-4.481183

>  <runtime>  (578) 
32.843104

>  <generation_date>  (578) 
nan

$$$$
4IQY_0_B_γ-5CMS_0_K_β
     RDKit          3D

 16 16  0  0  0  0  0  0  0  0999 V2000
   -1.4600   12.7600   -3.8300 O   0  0  0  0  0  0  0  0  0  0  0  0
   -0.3590   13.5850   -3.6520 C   0  0  2  0  0  0  0  0  0  0  0  0
   -0.5960   14.6600   -2.5970 C   0  0  0  0  0  0  0  0  0  0  0  0
   -0.0100   14.3710   -4.8920 C   0  0  2  0  0  0  0  0  0  0  0  0
    1.3800   14.3080   -4.9870 O   0  0  0  0  0  0  0  0  0  0  0  0
   -0.1010   15.8250   -3.1960 O   0  0  0  0  0  0  0  0  0  0  0  0
   -0.5190   15.7170   -4.5060 C   0  0  1  0  0  0  0  0  0  0  0  0
   -0.1200   16.9470   -5.3420 C   0  0  0  0  0  0  0  0  0  0  0  0
   -1.4360   18.0310   -5.8100 P   0  0  0  0  0  0  0  0  0  0  0  0
   -0.6070   19.2420   -6.2460 O   0  0  0  0  0  0  0  0  0  0  0  0
   -2.0660   18.0840   -7.3780 O   0  0  0  0  0  0  0  0  0  0  0  0
   -2.1710   18.9980   -4.7780 O   0  0  0  0  0  0  0  0  0  0  0  0
   -0.0710   19.6470   -7.6940 P   0  0  0  0  0  0  0  0  0  0  0  0
   -1.4230   20.1650   -8.2050 O   0  0  0  0  0  0  0  0  0  0  0  0
    0.5470   21.1810   -7.9880 O   0  0  0  0  0  0  0  0  0  0  0  0
    0.0690   18.5000   -8.8570 O   0  0  0  0  0  0  0  0  0  0  0  0
  2  1  1  6
  2  3  1  0
  2  4  1  0
  4  5  1  1
  3  6  1  0
  4  7  1  0
  6  7  1  0
  7  8  1  6
  8  9  1  0
  9 10  1  0
  9 11  1  0
  9 12  1  0
 10 13  1  0
 13 14  1  0
 13 15  1  0
 13 16  1  0
M  CHG  2  11  -1  15  -1
M  END
>  <%Rank>  (579) 
44.122137

>  <N_hits>  (579) 
2

>  <submitter_name>  (579) 
nan

>  <original SMILES>  (579) 
nan

>  <∆G_unbound>  (579) 
0.683631

>  <∆G_bound>  (579) 
-6.882435

>  <regarded>  (579) 
4IQY_0_B_γ,5CMS_0_K_β

>  <ref_pdb>  (579) 
nan

>  <smiles>  (579) 
[O-][PH](O)(O)O[PH]([O-])(O)CC1OCC(O)C1O

>  <submitter_email>  (579) 
nan

>  <disregarded>  (579) 


>  <LE>  (579) 
-0.472879

>  <submitter_institution>  (579) 
nan

>  <ref_mols>  (579) 
4IQY_0_B,5CMS_0_K

>  <N_constrained_atoms>  (579) 
16.0

>  <ref_url>  (579) 
nan

>  <method>  (579) 
nan

>  <comRMSD>  (579) 
0.773121

>  <N_unconstrained_atoms>  (579) 
0.0

>  <∆∆G>  (579) 
-7.566066

>  <runtime>  (579) 
31.954336

>  <generation_date>  (579) 
nan

$$$$
5CB5_0_H_β-mArh-x0910_0_A_α
     RDKit          3D

 18 18  0  0  0  0  0  0  0  0999 V2000
   -1.6990   20.9330   -8.3120 O   0  0  0  0  0  0  0  0  0  0  0  0
   -0.3740   20.0640   -7.9940 P   0  0  0  0  0  0  0  0  0  0  0  0
   -0.8330   19.5640   -6.5920 O   0  0  0  0  0  0  0  0  0  0  0  0
    1.0180   20.7740   -7.4310 O   0  0  0  0  0  0  0  0  0  0  0  0
   -0.3210   18.5160   -8.5790 O   0  0  0  0  0  0  0  0  0  0  0  0
   -1.3420   18.1650   -6.2040 P   0  0  0  0  0  0  0  0  0  0  0  0
    0.0650   17.4890   -6.6710 O   0  0  0  0  0  0  0  0  0  0  0  0
   -2.6280   18.3050   -7.1890 O   0  0  0  0  0  0  0  0  0  0  0  0
   -1.4890   18.3630   -4.5940 O   0  0  0  0  0  0  0  0  0  0  0  0
   -0.9950   17.1980   -4.0720 C   0  0  0  0  0  0  0  0  0  0  0  0
   -2.1030   16.1500   -4.1000 C   0  0  0  0  0  0  0  0  0  0  0  0
   -1.8010   14.9820   -3.2140 C   0  0  0  0  0  0  0  0  0  0  0  0
   -2.5400   14.9950   -1.9700 N   0  0  0  0  0  0  0  0  0  0  0  0
   -1.8020   15.0280   -0.7570 C   0  0  0  0  0  0  0  0  0  0  0  0
   -2.3060   14.9580    0.4900 N   0  0  0  0  0  0  0  0  0  0  0  0
   -0.4810   15.1320   -0.6250 N   0  0  0  0  0  0  0  0  0  0  0  0
   -1.3180   15.0220    1.3250 N   0  0  0  0  0  0  0  0  0  0  0  0
   -0.1610   15.1370    0.6660 C   0  0  0  0  0  0  0  0  0  0  0  0
  1  2  1  0
  2  3  1  0
  2  4  1  0
  2  5  1  0
  3  6  1  0
  6  7  1  0
  6  8  1  0
  6  9  1  0
  9 10  1  0
 10 11  1  0
 11 12  1  0
 12 13  1  0
 13 14  1  0
 14 15  1  0
 14 16  2  0
 15 17  1  0
 16 18  1  0
 17 18  2  0
M  CHG  2   4  -1   8  -1
M  END
>  <%Rank>  (580) 
44.198473

>  <N_hits>  (580) 
2

>  <submitter_name>  (580) 
nan

>  <original SMILES>  (580) 
nan

>  <∆G_unbound>  (580) 
0.733653

>  <∆G_bound>  (580) 
-7.538192

>  <regarded>  (580) 
5CB5_0_H_β,mArh-x0910_0_A_α

>  <ref_pdb>  (580) 
nan

>  <smiles>  (580) 
[O-][PH](O)(O)O[PH]([O-])(O)OCCCNc1ncn[nH]1

>  <submitter_email>  (580) 
nan

>  <disregarded>  (580) 


>  <LE>  (580) 
-0.459547

>  <submitter_institution>  (580) 
nan

>  <ref_mols>  (580) 
5CB5_0_H,mArh-x0910_0_A

>  <N_constrained_atoms>  (580) 
15.0

>  <ref_url>  (580) 
nan

>  <method>  (580) 
nan

>  <comRMSD>  (580) 
0.642691

>  <N_unconstrained_atoms>  (580) 
3.0

>  <∆∆G>  (580) 
-8.271845

>  <runtime>  (580) 
37.043509

>  <generation_date>  (580) 
nan

$$$$
mArh-EU0291_0_A_α-mArh-5cms_A_0_A_γ
     RDKit          3D

 18 20  0  0  0  0  0  0  0  0999 V2000
   -3.9610   14.6310   -2.5450 O   0  0  0  0  0  0  0  0  0  0  0  0
   -3.6370   15.0500   -1.4450 C   0  0  0  0  0  0  0  0  0  0  0  0
   -4.6310   15.4140   -0.5270 N   0  0  0  0  0  0  0  0  0  0  0  0
   -2.1510   15.2140   -1.0630 C   0  0  1  0  0  0  0  0  0  0  0  0
   -2.0740   14.7670    0.4330 C   0  0  0  0  0  0  0  0  0  0  0  0
   -4.3340   15.4000    0.7250 C   0  0  0  0  0  0  0  0  0  0  0  0
   -1.0020   14.6760   -2.0610 C   0  0  2  0  0  0  0  0  0  0  0  0
   -3.1400   15.0700    1.2560 N   0  0  0  0  0  0  0  0  0  0  0  0
    0.1150   14.0410   -1.2640 C   0  0  0  0  0  0  0  0  0  0  0  0
   -1.0250   14.1250    0.8980 C   0  0  0  0  0  0  0  0  0  0  0  0
   -0.3780   15.8620   -2.7030 O   0  0  0  0  0  0  0  0  0  0  0  0
   -1.3530   13.8390   -3.3580 C   0  0  2  0  0  0  0  0  0  0  0  0
   -1.3530   12.4160   -3.2340 O   0  0  0  0  0  0  0  0  0  0  0  0
    0.0650   13.8050    0.0500 C   0  0  0  0  0  0  0  0  0  0  0  0
    0.2810   15.5150   -3.9590 C   0  0  1  0  0  0  0  0  0  0  0  0
   -0.2750   14.1760   -4.4110 C   0  0  1  0  0  0  0  0  0  0  0  0
    0.0880   16.6420   -4.9760 C   0  0  0  0  0  0  0  0  0  0  0  0
    0.7180   13.1540   -4.5370 O   0  0  0  0  0  0  0  0  0  0  0  0
  1  2  2  0
  2  3  1  0
  4  2  1  6
  4  5  1  0
  3  6  2  0
  4  7  1  0
  5  8  1  0
  6  8  1  0
  7  9  1  1
  5 10  2  0
  7 11  1  0
  7 12  1  0
 12 13  1  1
  9 14  2  0
 10 14  1  0
 11 15  1  0
 12 16  1  0
 15 16  1  0
 15 17  1  6
 16 18  1  1
M  END
>  <%Rank>  (581) 
44.274809

>  <N_hits>  (581) 
2

>  <submitter_name>  (581) 
nan

>  <original SMILES>  (581) 
nan

>  <∆G_unbound>  (581) 
0.980667

>  <∆G_bound>  (581) 
-4.407627

>  <regarded>  (581) 
mArh-EU0291_0_A_α,mArh-5cms_A_0_A_γ

>  <ref_pdb>  (581) 
nan

>  <smiles>  (581) 
CC1OC2(C=CC=C3NC=NC(=O)C32)C(O)C1O

>  <submitter_email>  (581) 
nan

>  <disregarded>  (581) 


>  <LE>  (581) 
-0.29935

>  <submitter_institution>  (581) 
nan

>  <ref_mols>  (581) 
mArh-EU0291_0_A,mArh-5cms_A_0_A

>  <N_constrained_atoms>  (581) 
18.0

>  <ref_url>  (581) 
nan

>  <method>  (581) 
nan

>  <comRMSD>  (581) 
0.73128

>  <N_unconstrained_atoms>  (581) 
0.0

>  <∆∆G>  (581) 
-5.388294

>  <runtime>  (581) 
30.714679

>  <generation_date>  (581) 
nan

$$$$
5CMS_0_D_α-5CB5_0_E_γ
     RDKit          3D

 16 16  0  0  0  0  0  0  0  0999 V2000
   -1.2610   16.6580   -4.9420 O   0  0  0  0  0  0  0  0  0  0  0  0
   -1.4490   17.8850   -6.0560 P   0  0  0  0  0  0  0  0  0  0  0  0
   -2.8090   17.7860   -6.9510 O   0  0  0  0  0  0  0  0  0  0  0  0
   -0.0520   16.0500   -4.6780 C   0  0  1  0  0  0  0  0  0  0  0  0
   -2.1080   18.8690   -5.1030 O   0  0  0  0  0  0  0  0  0  0  0  0
   -0.2950   18.9950   -6.5080 O   0  0  0  0  0  0  0  0  0  0  0  0
    0.0550   15.9320   -3.3250 O   0  0  0  0  0  0  0  0  0  0  0  0
   -0.0540   14.6110   -5.1390 C   0  0  1  0  0  0  0  0  0  0  0  0
   -0.3390   19.7360   -7.8640 P   0  0  0  0  0  0  0  0  0  0  0  0
    1.1530   13.9730   -4.8630 O   0  0  0  0  0  0  0  0  0  0  0  0
   -0.6210   14.7950   -2.9230 C   0  0  0  0  0  0  0  0  0  0  0  0
   -1.0430   14.0360   -4.1580 C   0  0  2  0  0  0  0  0  0  0  0  0
   -1.8580   20.3610   -7.6620 O   0  0  0  0  0  0  0  0  0  0  0  0
   -0.1210   18.4190   -8.7250 O   0  0  0  0  0  0  0  0  0  0  0  0
    0.9840   20.6860   -7.4500 O   0  0  0  0  0  0  0  0  0  0  0  0
   -0.8570   12.6690   -4.0650 O   0  0  0  0  0  0  0  0  0  0  0  0
  1  2  1  0
  2  3  1  0
  4  1  1  1
  2  5  1  0
  2  6  1  0
  4  7  1  0
  4  8  1  0
  6  9  1  0
  8 10  1  1
  7 11  1  0
  8 12  1  0
 11 12  1  0
  9 13  1  0
  9 14  1  0
  9 15  1  0
 12 16  1  1
M  CHG  2   3  -1  14  -1
M  END
>  <%Rank>  (582) 
44.351145

>  <N_hits>  (582) 
2

>  <submitter_name>  (582) 
nan

>  <original SMILES>  (582) 
nan

>  <∆G_unbound>  (582) 
0.817504

>  <∆G_bound>  (582) 
-7.044771

>  <regarded>  (582) 
5CMS_0_D_α,5CB5_0_E_γ

>  <ref_pdb>  (582) 
nan

>  <smiles>  (582) 
[O-][PH](O)(O)O[PH]([O-])(O)OC1OCC(O)C1O

>  <submitter_email>  (582) 
nan

>  <disregarded>  (582) 


>  <LE>  (582) 
-0.491392

>  <submitter_institution>  (582) 
nan

>  <ref_mols>  (582) 
5CMS_0_D,5CB5_0_E

>  <N_constrained_atoms>  (582) 
16.0

>  <ref_url>  (582) 
nan

>  <method>  (582) 
nan

>  <comRMSD>  (582) 
0.783699

>  <N_unconstrained_atoms>  (582) 
0.0

>  <∆∆G>  (582) 
-7.862275

>  <runtime>  (582) 
30.696305

>  <generation_date>  (582) 
nan

$$$$
mArh-x0837_0_A_α-5L9K_0_B_β
     RDKit          3D

 19 19  0  0  0  0  0  0  0  0999 V2000
   -7.5420   14.8810   -0.2220 O   0  0  0  0  0  0  0  0  0  0  0  0
   -6.3270   14.9440   -0.0480 C   0  0  0  0  0  0  0  0  0  0  0  0
   -5.7710   14.9360    1.2940 N   0  0  0  0  0  0  0  0  0  0  0  0
   -5.3880   15.0230   -1.1630 C   0  0  0  0  0  0  0  0  0  0  0  0
   -4.4140   15.1540    1.3300 C   0  0  0  0  0  0  0  0  0  0  0  0
   -4.0710   14.2790   -0.8520 C   0  0  1  0  0  0  0  0  0  0  0  0
   -2.5320   14.5940   -2.2530 I   0  0  0  0  0  0  0  0  0  0  0  0
   -3.6410   14.8840    0.4260 C   0  0  0  0  0  0  0  0  0  0  0  0
   -3.0680   14.9660   -4.3200 C   0  0  0  0  0  0  0  0  0  0  0  0
   -2.1580   16.1970   -4.4090 C   0  0  0  0  0  0  0  0  0  0  0  0
   -1.8530   16.5330   -5.6580 O   0  0  0  0  0  0  0  0  0  0  0  0
   -1.8710   17.9580   -6.0960 P   0  0  0  0  0  0  0  0  0  0  0  0
   -1.5230   19.3560   -6.6250 O   0  0  0  0  0  0  0  0  0  0  0  0
   -1.9190   18.5760   -4.6310 O   0  0  0  0  0  0  0  0  0  0  0  0
   -3.1110   17.8050   -6.9990 O   0  0  0  0  0  0  0  0  0  0  0  0
   -0.8820   19.7570   -8.0400 P   0  0  0  0  0  0  0  0  0  0  0  0
   -1.9190   20.8810   -8.2530 O   0  0  0  0  0  0  0  0  0  0  0  0
    0.1370   18.6260   -7.9020 O   0  0  0  0  0  0  0  0  0  0  0  0
    0.3740   20.8430   -8.0160 O   0  0  0  0  0  0  0  0  0  0  0  0
  1  2  2  0
  2  3  1  0
  2  4  1  0
  3  5  1  0
  4  6  1  0
  6  7  1  6
  5  8  2  0
  6  8  1  0
  7  9  1  0
  9 10  1  0
 10 11  1  0
 11 12  1  0
 12 13  1  0
 12 14  1  0
 12 15  1  0
 13 16  1  0
 16 17  1  0
 16 18  1  0
 16 19  1  0
M  CHG  2  14  -1  18  -1
M  END
>  <%Rank>  (583) 
44.427481

>  <N_hits>  (583) 
2

>  <submitter_name>  (583) 
nan

>  <original SMILES>  (583) 
nan

>  <∆G_unbound>  (583) 
0.988507

>  <∆G_bound>  (583) 
-8.165567

>  <regarded>  (583) 
mArh-x0837_0_A_α,5L9K_0_B_β

>  <ref_pdb>  (583) 
nan

>  <smiles>  (583) 
O=C1CC(ICCO[PH]([O-])(O)O[PH]([O-])(O)O)C=CN1

>  <submitter_email>  (583) 
nan

>  <disregarded>  (583) 


>  <LE>  (583) 
-0.481793

>  <submitter_institution>  (583) 
nan

>  <ref_mols>  (583) 
mArh-x0837_0_A,5L9K_0_B

>  <N_constrained_atoms>  (583) 
17.0

>  <ref_url>  (583) 
nan

>  <method>  (583) 
nan

>  <comRMSD>  (583) 
0.742748

>  <N_unconstrained_atoms>  (583) 
2.0

>  <∆∆G>  (583) 
-9.154074

>  <runtime>  (583) 
27.194355

>  <generation_date>  (583) 
nan

$$$$
5CMS_0_N_γ-mArh-EU0815_0_A_α
     RDKit          3D

 22 22  0  0  0  0  0  0  0  0999 V2000
    1.0100   12.8640   -3.9350 O   0  0  0  0  0  0  0  0  0  0  0  0
   -0.1270   13.7180   -4.0680 C   0  0  1  0  0  0  0  0  0  0  0  0
   -0.2350   14.8390   -3.0220 C   0  0  2  0  0  0  0  0  0  0  0  0
   -0.0050   14.5080   -5.3480 C   0  0  2  0  0  0  0  0  0  0  0  0
    0.7110   13.6930   -6.2850 O   0  0  0  0  0  0  0  0  0  0  0  0
   -1.6710   15.3140   -2.7240 C   0  0  0  0  0  0  0  0  0  0  0  0
    0.4940   15.9720   -3.5420 O   0  0  0  0  0  0  0  0  0  0  0  0
    0.8050   15.7400   -4.9280 C   0  0  2  0  0  0  0  0  0  0  0  0
    0.4530   17.0390   -5.6510 C   0  0  0  0  0  0  0  0  0  0  0  0
   -2.0900   15.1420   -1.2590 C   0  0  0  0  0  0  0  0  0  0  0  0
   -3.5400   15.5880   -1.0080 C   0  0  0  0  0  0  0  0  0  0  0  0
   -4.5690   14.4490   -0.8810 C   0  0  0  0  0  0  0  0  0  0  0  0
   -5.8320   14.7730   -0.0630 C   0  0  0  0  0  0  0  0  0  0  0  0
   -5.5560   14.7860    1.4450 C   0  0  0  0  0  0  0  0  0  0  0  0
   -6.6160   14.2310    2.3010 N   0  0  0  0  0  0  0  0  0  0  0  0
   -7.7040   14.9430    2.7840 C   0  0  0  0  0  0  0  0  0  0  0  0
   -7.7210   15.0130    4.1670 N   0  0  0  0  0  0  0  0  0  0  0  0
   -8.5730   15.4500    2.0840 O   0  0  0  0  0  0  0  0  0  0  0  0
   -8.9750   14.9480    4.9260 C   0  0  1  0  0  0  0  0  0  0  0  0
   -9.3460   13.4910    5.2010 C   0  0  0  0  0  0  0  0  0  0  0  0
   -8.9110   15.7640    6.2380 C   0  0  0  0  0  0  0  0  0  0  0  0
  -10.1380   15.7100    6.9650 O   0  0  0  0  0  0  0  0  0  0  0  0
  2  1  1  1
  2  3  1  0
  2  4  1  0
  4  5  1  6
  3  6  1  6
  3  7  1  0
  4  8  1  0
  7  8  1  0
  8  9  1  6
  6 10  1  0
 10 11  1  0
 11 12  1  0
 12 13  1  0
 13 14  1  0
 14 15  1  0
 15 16  1  0
 16 17  1  0
 16 18  2  0
 17 19  1  0
 19 20  1  1
 19 21  1  0
 21 22  1  0
M  END
>  <%Rank>  (584) 
44.503817

>  <N_hits>  (584) 
2

>  <submitter_name>  (584) 
nan

>  <original SMILES>  (584) 
nan

>  <∆G_unbound>  (584) 
1.287807

>  <∆G_bound>  (584) 
-4.970977

>  <regarded>  (584) 
5CMS_0_N_γ,mArh-EU0815_0_A_α

>  <ref_pdb>  (584) 
nan

>  <smiles>  (584) 
CC1OC(CCCCCCNC(=O)N[C@@H](C)CO)C(O)C1O

>  <submitter_email>  (584) 
nan

>  <disregarded>  (584) 


>  <LE>  (584) 
-0.28449

>  <submitter_institution>  (584) 
nan

>  <ref_mols>  (584) 
5CMS_0_N,mArh-EU0815_0_A

>  <N_constrained_atoms>  (584) 
16.0

>  <ref_url>  (584) 
nan

>  <method>  (584) 
nan

>  <comRMSD>  (584) 
0.493797

>  <N_unconstrained_atoms>  (584) 
6.0

>  <∆∆G>  (584) 
-6.258784

>  <runtime>  (584) 
38.774518

>  <generation_date>  (584) 
nan

$$$$
mArh-5cb5_K_0_K_α-6WOJ_0_C_γ
     RDKit          3D

 22 23  0  0  0  0  0  0  0  0999 V2000
   -2.2650   21.4490   -8.9930 C   0  0  0  0  0  0  0  0  0  0  0  0
   -2.6640   22.7120   -8.2950 C   0  0  2  0  0  0  0  0  0  0  0  0
   -2.7670   22.2950   -6.9550 O   0  0  0  0  0  0  0  0  0  0  0  0
   -3.9990   23.3480   -8.6410 C   0  0  1  0  0  0  0  0  0  0  0  0
   -4.3980   23.0900   -9.9910 O   0  0  0  0  0  0  0  0  0  0  0  0
   -4.1020   22.2210   -6.5220 C   0  0  1  0  0  0  0  0  0  0  0  0
   -4.9870   22.7550   -7.6500 C   0  0  1  0  0  0  0  0  0  0  0  0
   -4.3330   20.8680   -6.2120 O   0  0  0  0  0  0  0  0  0  0  0  0
   -5.8670   23.7900   -7.1890 O   0  0  0  0  0  0  0  0  0  0  0  0
   -3.1740   20.1070   -6.6180 C   0  0  0  0  0  0  0  0  0  0  0  0
   -1.9240   20.3060   -5.8410 C   0  0  0  0  0  0  0  0  0  0  0  0
   -1.0030   19.1140   -6.0950 C   0  0  0  0  0  0  0  0  0  0  0  0
   -0.8610   18.2990   -4.8260 C   0  0  0  0  0  0  0  0  0  0  0  0
    0.5760   17.8930   -4.5370 C   0  0  0  0  0  0  0  0  0  0  0  0
    0.9200   16.6350   -5.3000 C   0  0  0  0  0  0  0  0  0  0  0  0
    1.2480   15.4380   -4.4120 C   0  0  1  0  0  0  0  0  0  0  0  0
    0.4870   15.5490   -3.1760 O   0  0  0  0  0  0  0  0  0  0  0  0
    0.8550   14.0970   -5.0310 C   0  0  1  0  0  0  0  0  0  0  0  0
    1.6700   12.9910   -4.6920 O   0  0  0  0  0  0  0  0  0  0  0  0
   -0.4280   14.4450   -3.1120 C   0  0  0  0  0  0  0  0  0  0  0  0
   -0.5650   13.9250   -4.5290 C   0  0  2  0  0  0  0  0  0  0  0  0
   -0.9770   12.5670   -4.6140 O   0  0  0  0  0  0  0  0  0  0  0  0
  2  1  1  6
  2  3  1  0
  2  4  1  0
  4  5  1  6
  3  6  1  0
  4  7  1  0
  6  7  1  0
  6  8  1  6
  7  9  1  1
  8 10  1  0
 10 11  1  0
 11 12  1  0
 12 13  1  0
 13 14  1  0
 14 15  1  0
 16 15  1  6
 16 17  1  0
 16 18  1  0
 18 19  1  1
 17 20  1  0
 18 21  1  0
 20 21  1  0
 21 22  1  1
M  END
>  <%Rank>  (585) 
44.580153

>  <N_hits>  (585) 
2

>  <submitter_name>  (585) 
nan

>  <original SMILES>  (585) 
nan

>  <∆G_unbound>  (585) 
0.187336

>  <∆G_bound>  (585) 
-9.368742

>  <regarded>  (585) 
mArh-5cb5_K_0_K_α,6WOJ_0_C_γ

>  <ref_pdb>  (585) 
nan

>  <smiles>  (585) 
CC1OC(OCCCCCCC2OCC(O)C2O)C(O)C1O

>  <submitter_email>  (585) 
nan

>  <disregarded>  (585) 


>  <LE>  (585) 
-0.434367

>  <submitter_institution>  (585) 
nan

>  <ref_mols>  (585) 
mArh-5cb5_K_0_K,6WOJ_0_C

>  <N_constrained_atoms>  (585) 
17.0

>  <ref_url>  (585) 
nan

>  <method>  (585) 
nan

>  <comRMSD>  (585) 
0.631842

>  <N_unconstrained_atoms>  (585) 
5.0

>  <∆∆G>  (585) 
-9.556077

>  <runtime>  (585) 
42.376583

>  <generation_date>  (585) 
nan

$$$$
5CMS_0_P_β-mArh-5l9k_A_0_A_γ
     RDKit          3D

 16 16  0  0  0  0  0  0  0  0999 V2000
   -1.1420   21.0220   -8.3560 O   0  0  0  0  0  0  0  0  0  0  0  0
   -0.5040   19.5640   -7.8880 P   0  0  0  0  0  0  0  0  0  0  0  0
   -0.5650   19.0990   -6.3240 O   0  0  0  0  0  0  0  0  0  0  0  0
    0.8040   20.2600   -7.5440 O   0  0  0  0  0  0  0  0  0  0  0  0
    0.0820   18.5610   -8.9630 O   0  0  0  0  0  0  0  0  0  0  0  0
   -1.7380   18.1040   -5.8840 P   0  0  0  0  0  0  0  0  0  0  0  0
   -0.8210   16.8430   -5.7300 O   0  0  0  0  0  0  0  0  0  0  0  0
   -2.6830   17.1850   -6.9230 O   0  0  0  0  0  0  0  0  0  0  0  0
   -2.1410   18.0490   -4.3730 O   0  0  0  0  0  0  0  0  0  0  0  0
   -1.1740   15.7900   -4.8760 C   0  0  2  0  0  0  0  0  0  0  0  0
   -0.6850   15.8650   -3.5890 O   0  0  0  0  0  0  0  0  0  0  0  0
   -0.8640   14.3930   -5.2220 C   0  0  1  0  0  0  0  0  0  0  0  0
    0.4960   14.0350   -5.0820 O   0  0  0  0  0  0  0  0  0  0  0  0
   -1.3830   14.8290   -2.9310 C   0  0  0  0  0  0  0  0  0  0  0  0
   -1.5330   13.7390   -4.0190 C   0  0  1  0  0  0  0  0  0  0  0  0
   -2.8370   13.4800   -4.3490 O   0  0  0  0  0  0  0  0  0  0  0  0
  1  2  1  0
  2  3  1  0
  2  4  1  0
  2  5  1  0
  3  6  1  0
  6  7  1  0
  6  8  1  0
  6  9  1  0
 10  7  1  6
 10 11  1  0
 10 12  1  0
 12 13  1  1
 11 14  1  0
 12 15  1  0
 14 15  1  0
 15 16  1  6
M  CHG  2   4  -1   8  -1
M  END
>  <%Rank>  (586) 
44.656489

>  <N_hits>  (586) 
2

>  <submitter_name>  (586) 
nan

>  <original SMILES>  (586) 
nan

>  <∆G_unbound>  (586) 
1.160673

>  <∆G_bound>  (586) 
-4.88158

>  <regarded>  (586) 
5CMS_0_P_β,mArh-5l9k_A_0_A_γ

>  <ref_pdb>  (586) 
nan

>  <smiles>  (586) 
[O-][PH](O)(O)O[PH]([O-])(O)OC1OCC(O)C1O

>  <submitter_email>  (586) 
nan

>  <disregarded>  (586) 


>  <LE>  (586) 
-0.377641

>  <submitter_institution>  (586) 
nan

>  <ref_mols>  (586) 
5CMS_0_P,mArh-5l9k_A_0_A

>  <N_constrained_atoms>  (586) 
16.0

>  <ref_url>  (586) 
nan

>  <method>  (586) 
nan

>  <comRMSD>  (586) 
0.728869

>  <N_unconstrained_atoms>  (586) 
0.0

>  <∆∆G>  (586) 
-6.042253

>  <runtime>  (586) 
30.493535

>  <generation_date>  (586) 
nan

$$$$
mArh-5cms_O_14_O_β-mArh-6mea_B_0_B_γ
     RDKit          3D

 16 16  0  0  0  0  0  0  0  0999 V2000
   -1.3540   20.6610   -8.4660 O   0  0  0  0  0  0  0  0  0  0  0  0
   -0.2840   19.7630   -7.7060 P   0  0  0  0  0  0  0  0  0  0  0  0
   -1.0190   19.3520   -6.3650 O   0  0  0  0  0  0  0  0  0  0  0  0
    1.0120   20.4360   -7.5290 O   0  0  0  0  0  0  0  0  0  0  0  0
   -0.2180   18.4750   -8.6560 O   0  0  0  0  0  0  0  0  0  0  0  0
   -1.5460   17.9060   -6.0310 P   0  0  2  0  0  0  0  0  0  0  0  0
   -0.3180   16.9760   -5.5640 O   0  0  0  0  0  0  0  0  0  0  0  0
   -2.5480   17.3510   -6.9570 O   0  0  0  0  0  0  0  0  0  0  0  0
   -2.2080   18.1720   -4.6280 O   0  0  0  0  0  0  0  0  0  0  0  0
   -0.6220   15.9000   -4.6830 C   0  0  2  0  0  0  0  0  0  0  0  0
    0.0500   15.8960   -3.4090 O   0  0  0  0  0  0  0  0  0  0  0  0
   -0.3490   14.4740   -5.1580 C   0  0  1  0  0  0  0  0  0  0  0  0
    1.0340   14.0590   -5.1740 O   0  0  0  0  0  0  0  0  0  0  0  0
   -0.2870   14.6010   -2.8460 C   0  0  0  0  0  0  0  0  0  0  0  0
   -0.9910   13.8310   -3.9700 C   0  0  2  0  0  0  0  0  0  0  0  0
   -0.7750   12.4370   -3.9790 O   0  0  0  0  0  0  0  0  0  0  0  0
  1  2  1  0
  2  3  1  0
  2  4  2  0
  2  5  1  0
  3  6  1  0
  6  7  1  0
  6  8  2  0
  6  9  1  1
 10  7  1  6
 10 11  1  0
 10 12  1  0
 12 13  1  1
 11 14  1  0
 12 15  1  0
 14 15  1  0
 15 16  1  1
M  END
>  <%Rank>  (587) 
44.732824

>  <N_hits>  (587) 
2

>  <submitter_name>  (587) 
nan

>  <original SMILES>  (587) 
nan

>  <∆G_unbound>  (587) 
1.157846

>  <∆G_bound>  (587) 
-7.280141

>  <regarded>  (587) 
mArh-5cms_O_14_O_β,mArh-6mea_B_0_B_γ

>  <ref_pdb>  (587) 
nan

>  <smiles>  (587) 
O=P(O)(O)OP(=O)(O)OC1OCC(O)C1O

>  <submitter_email>  (587) 
nan

>  <disregarded>  (587) 


>  <LE>  (587) 
-0.527374

>  <submitter_institution>  (587) 
nan

>  <ref_mols>  (587) 
mArh-5cms_O_14_O,mArh-6mea_B_0_B

>  <N_constrained_atoms>  (587) 
16.0

>  <ref_url>  (587) 
nan

>  <method>  (587) 
nan

>  <comRMSD>  (587) 
0.803924

>  <N_unconstrained_atoms>  (587) 
0.0

>  <∆∆G>  (587) 
-8.437987

>  <runtime>  (587) 
39.734918

>  <generation_date>  (587) 
nan

$$$$
mArh-5cms_B_1_B_β-mArh-6woj_B_0_B_γ
     RDKit          3D

 16 16  0  0  0  0  0  0  0  0999 V2000
   -1.5690   20.4280   -8.4710 O   0  0  0  0  0  0  0  0  0  0  0  0
   -0.3280   19.7530   -7.7450 P   0  0  0  0  0  0  0  0  0  0  0  0
   -0.9080   19.3020   -6.3410 O   0  0  0  0  0  0  0  0  0  0  0  0
    0.8560   20.6360   -7.7080 O   0  0  0  0  0  0  0  0  0  0  0  0
   -0.1310   18.4470   -8.6430 O   0  0  0  0  0  0  0  0  0  0  0  0
   -1.4590   17.8630   -6.0090 P   0  0  2  0  0  0  0  0  0  0  0  0
   -0.1880   16.9050   -5.6810 O   0  0  0  0  0  0  0  0  0  0  0  0
   -2.5380   17.3630   -6.8980 O   0  0  0  0  0  0  0  0  0  0  0  0
   -2.0300   18.0980   -4.5550 O   0  0  0  0  0  0  0  0  0  0  0  0
   -0.4090   15.7590   -4.8430 C   0  0  2  0  0  0  0  0  0  0  0  0
    0.0480   15.8360   -3.4820 O   0  0  0  0  0  0  0  0  0  0  0  0
    0.1570   14.3900   -5.2500 C   0  0  1  0  0  0  0  0  0  0  0  0
    1.5430   14.1400   -4.9470 O   0  0  0  0  0  0  0  0  0  0  0  0
   -0.2070   14.4950   -2.9800 C   0  0  0  0  0  0  0  0  0  0  0  0
   -0.6440   13.6730   -4.2000 C   0  0  2  0  0  0  0  0  0  0  0  0
   -0.3510   12.2920   -4.1380 O   0  0  0  0  0  0  0  0  0  0  0  0
  1  2  1  0
  2  3  1  0
  2  4  2  0
  2  5  1  0
  3  6  1  0
  6  7  1  0
  6  8  2  0
  6  9  1  1
 10  7  1  6
 10 11  1  0
 10 12  1  0
 12 13  1  1
 11 14  1  0
 12 15  1  0
 14 15  1  0
 15 16  1  1
M  END
>  <%Rank>  (588) 
44.80916

>  <N_hits>  (588) 
2

>  <submitter_name>  (588) 
nan

>  <original SMILES>  (588) 
nan

>  <∆G_unbound>  (588) 
1.157846

>  <∆G_bound>  (588) 
-7.897919

>  <regarded>  (588) 
mArh-5cms_B_1_B_β,mArh-6woj_B_0_B_γ

>  <ref_pdb>  (588) 
nan

>  <smiles>  (588) 
O=P(O)(O)OP(=O)(O)OC1OCC(O)C1O

>  <submitter_email>  (588) 
nan

>  <disregarded>  (588) 


>  <LE>  (588) 
-0.565985

>  <submitter_institution>  (588) 
nan

>  <ref_mols>  (588) 
mArh-5cms_B_1_B,mArh-6woj_B_0_B

>  <N_constrained_atoms>  (588) 
16.0

>  <ref_url>  (588) 
nan

>  <method>  (588) 
nan

>  <comRMSD>  (588) 
0.823734

>  <N_unconstrained_atoms>  (588) 
0.0

>  <∆∆G>  (588) 
-9.055765

>  <runtime>  (588) 
25.714732

>  <generation_date>  (588) 
nan

$$$$
mArh-x0628_0_A_α-5CMS_0_A_β
     RDKit          3D

 23 23  0  0  0  0  0  0  0  0999 V2000
   -0.7610    9.0320   -7.3010 C   0  0  0  0  0  0  0  0  0  0  0  0
   -0.8250   10.2630   -6.4820 C   0  0  0  0  0  0  0  0  0  0  0  0
   -1.7720   10.4970   -5.5500 N   0  0  0  0  0  0  0  0  0  0  0  0
    0.0120   11.3230   -6.5150 N   0  0  0  0  0  0  0  0  0  0  0  0
   -0.3670   12.1890   -5.6560 N   0  0  0  0  0  0  0  0  0  0  0  0
   -1.4810   11.6960   -5.0380 C   0  0  0  0  0  0  0  0  0  0  0  0
   -2.2940   12.3410   -3.9520 C   0  0  0  0  0  0  0  0  0  0  0  0
    0.1590   13.4920   -5.2730 C   0  0  2  0  0  0  0  0  0  0  0  0
    1.3820   13.2730   -4.3780 C   0  0  0  0  0  0  0  0  0  0  0  0
   -0.7990   14.4980   -4.7150 C   0  0  0  0  0  0  0  0  0  0  0  0
    1.0730   12.5160   -3.1400 C   0  0  0  0  0  0  0  0  0  0  0  0
   -0.5410   15.9880   -4.9800 C   0  0  0  0  0  0  0  0  0  0  0  0
    0.4860   11.3810   -3.1500 O   0  0  0  0  0  0  0  0  0  0  0  0
    1.3840   12.9900   -1.8900 O   0  0  0  0  0  0  0  0  0  0  0  0
   -1.6930   16.6540   -5.4750 O   0  0  0  0  0  0  0  0  0  0  0  0
   -1.6170   18.0710   -6.1350 P   0  0  0  0  0  0  0  0  0  0  0  0
   -1.1000   19.4480   -6.6630 O   0  0  0  0  0  0  0  0  0  0  0  0
   -0.1100   17.6040   -6.6320 O   0  0  0  0  0  0  0  0  0  0  0  0
   -1.8180   18.8000   -4.6840 O   0  0  0  0  0  0  0  0  0  0  0  0
   -0.5230   19.8620   -8.0340 P   0  0  0  0  0  0  0  0  0  0  0  0
   -1.9340   20.6990   -8.3370 O   0  0  0  0  0  0  0  0  0  0  0  0
    0.7640   20.6960   -7.4470 O   0  0  0  0  0  0  0  0  0  0  0  0
   -0.3310   18.4210   -8.6800 O   0  0  0  0  0  0  0  0  0  0  0  0
  1  2  1  0
  2  3  1  0
  2  4  2  0
  4  5  1  0
  3  6  2  0
  5  6  1  0
  6  7  1  0
  5  8  1  0
  8  9  1  1
  8 10  1  0
  9 11  1  0
 10 12  1  0
 11 13  2  0
 11 14  1  0
 12 15  1  0
 15 16  1  0
 16 17  1  0
 16 18  1  0
 16 19  1  0
 17 20  1  0
 20 21  1  0
 20 22  1  0
 20 23  1  0
M  CHG  2  18  -1  22  -1
M  END
>  <%Rank>  (589) 
44.885496

>  <N_hits>  (589) 
2

>  <submitter_name>  (589) 
nan

>  <original SMILES>  (589) 
nan

>  <∆G_unbound>  (589) 
3.769648

>  <∆G_bound>  (589) 
-5.537773

>  <regarded>  (589) 
mArh-x0628_0_A_α,5CMS_0_A_β

>  <ref_pdb>  (589) 
nan

>  <smiles>  (589) 
Cc1nc(C)n(C(CCO[PH]([O-])(O)O[PH]([O-])(O)O)CC(=O)O)n1

>  <submitter_email>  (589) 
nan

>  <disregarded>  (589) 


>  <LE>  (589) 
-0.40467

>  <submitter_institution>  (589) 
nan

>  <ref_mols>  (589) 
mArh-x0628_0_A,5CMS_0_A

>  <N_constrained_atoms>  (589) 
21.0

>  <ref_url>  (589) 
nan

>  <method>  (589) 
nan

>  <comRMSD>  (589) 
0.797156

>  <N_unconstrained_atoms>  (589) 
2.0

>  <∆∆G>  (589) 
-9.307421

>  <runtime>  (589) 
34.063333

>  <generation_date>  (589) 
nan

$$$$
mArh-5lw0_A_0_A_β-6WOJ_0_C_δ
     RDKit          3D

 21 22  0  0  0  0  0  0  0  0999 V2000
   -1.5820   20.3920   -8.7050 O   0  0  0  0  0  0  0  0  0  0  0  0
   -0.5510   19.4980   -7.9070 P   0  0  0  0  0  0  0  0  0  0  0  0
   -1.2110   19.2060   -6.4890 O   0  0  0  0  0  0  0  0  0  0  0  0
   -0.1630   18.3460   -8.7550 O   0  0  0  0  0  0  0  0  0  0  0  0
    0.6190   20.5440   -7.6970 O   0  0  0  0  0  0  0  0  0  0  0  0
   -1.7080   17.7790   -6.0220 P   0  0  2  0  0  0  0  0  0  0  0  0
   -0.3510   16.9440   -6.0320 O   0  0  0  0  0  0  0  0  0  0  0  0
   -2.7760   17.1730   -6.8560 O   0  0  0  0  0  0  0  0  0  0  0  0
   -1.9730   17.7930   -4.4630 O   0  0  0  0  0  0  0  0  0  0  0  0
   -1.6360   16.5800   -3.8210 C   0  0  0  0  0  0  0  0  0  0  0  0
   -2.8250   15.6300   -3.7580 C   0  0  0  0  0  0  0  0  0  0  0  0
   -2.7030   14.5060   -2.7450 C   0  0  1  0  0  0  0  0  0  0  0  0
   -1.3110   14.3270   -2.2910 N   0  0  0  0  0  0  0  0  0  0  0  0
   -3.5550   14.6810   -1.5640 N   0  0  0  0  0  0  0  0  0  0  0  0
   -1.4450   14.1010   -0.8760 C   0  0  2  0  0  0  0  0  0  0  0  0
   -2.5960   14.9930   -0.5050 C   0  0  2  0  0  0  0  0  0  0  0  0
   -0.2550   14.4570   -0.1690 N   0  0  0  0  0  0  0  0  0  0  0  0
   -2.9250   14.5500    0.9080 C   0  0  2  0  0  0  0  0  0  0  0  0
   -3.9790   15.3330    1.5290 N   0  0  0  0  0  0  0  0  0  0  0  0
   -0.4770   14.2210    1.2530 C   0  0  0  0  0  0  0  0  0  0  0  0
   -1.7730   14.7070    1.7470 N   0  0  0  0  0  0  0  0  0  0  0  0
  1  2  1  0
  2  3  1  0
  2  4  2  0
  2  5  1  0
  3  6  1  0
  6  7  1  1
  6  8  2  0
  6  9  1  0
  9 10  1  0
 10 11  1  0
 12 11  1  6
 12 13  1  0
 12 14  1  0
 15 13  1  6
 16 14  1  6
 15 16  1  0
 15 17  1  0
 16 18  1  0
 18 19  1  1
 17 20  1  0
 18 21  1  0
 20 21  1  0
M  END
>  <%Rank>  (590) 
44.961832

>  <N_hits>  (590) 
2

>  <submitter_name>  (590) 
nan

>  <original SMILES>  (590) 
nan

>  <∆G_unbound>  (590) 
4.831508

>  <∆G_bound>  (590) 
-8.896622

>  <regarded>  (590) 
mArh-5lw0_A_0_A_β,6WOJ_0_C_δ

>  <ref_pdb>  (590) 
nan

>  <smiles>  (590) 
NC1NCNC2NC(CCOP(=O)(O)OP(=O)(O)O)NC12

>  <submitter_email>  (590) 
nan

>  <disregarded>  (590) 


>  <LE>  (590) 
-0.653721

>  <submitter_institution>  (590) 
nan

>  <ref_mols>  (590) 
mArh-5lw0_A_0_A,6WOJ_0_C

>  <N_constrained_atoms>  (590) 
19.0

>  <ref_url>  (590) 
nan

>  <method>  (590) 
nan

>  <comRMSD>  (590) 
0.879769

>  <N_unconstrained_atoms>  (590) 
2.0

>  <∆∆G>  (590) 
-13.728131

>  <runtime>  (590) 
33.789049

>  <generation_date>  (590) 
nan

$$$$
5CB5_0_Q_β-5CB5_0_K_α
     RDKit          3D

 17 17  0  0  0  0  0  0  0  0999 V2000
   -1.8550   21.2220   -9.0490 O   0  0  0  0  0  0  0  0  0  0  0  0
   -0.8840   20.3870   -7.9330 P   0  0  0  0  0  0  0  0  0  0  0  0
   -1.6070   19.7830   -6.6110 O   0  0  0  0  0  0  0  0  0  0  0  0
   -3.1830   21.6450   -8.7230 C   0  0  1  0  0  0  0  0  0  0  0  0
   -0.6520   21.7180   -7.2450 O   0  0  0  0  0  0  0  0  0  0  0  0
   -0.9620   19.0370   -8.6470 O   0  0  0  0  0  0  0  0  0  0  0  0
   -3.6720   21.1400   -7.5610 O   0  0  0  0  0  0  0  0  0  0  0  0
   -3.3140   23.1880   -8.4860 C   0  0  1  0  0  0  0  0  0  0  0  0
   -1.4560   18.3620   -6.0500 P   0  0  0  0  0  0  0  0  0  0  0  0
   -3.9600   23.7510   -9.5870 O   0  0  0  0  0  0  0  0  0  0  0  0
   -4.7730   21.8640   -7.2130 C   0  0  2  0  0  0  0  0  0  0  0  0
   -4.3240   23.2830   -7.3220 C   0  0  2  0  0  0  0  0  0  0  0  0
   -1.1730   16.9380   -5.5580 O   0  0  0  0  0  0  0  0  0  0  0  0
   -2.7240   17.8480   -6.9400 O   0  0  0  0  0  0  0  0  0  0  0  0
   -1.7600   18.9210   -4.5430 O   0  0  0  0  0  0  0  0  0  0  0  0
   -5.3240   21.5810   -5.9670 O   0  0  0  0  0  0  0  0  0  0  0  0
   -5.3580   24.1050   -7.8080 O   0  0  0  0  0  0  0  0  0  0  0  0
  1  2  1  0
  2  3  1  0
  4  1  1  1
  2  5  1  0
  2  6  1  0
  4  7  1  0
  4  8  1  0
  3  9  1  0
  8 10  1  6
  7 11  1  0
  8 12  1  0
 11 12  1  0
  9 13  1  0
  9 14  1  0
  9 15  1  0
 11 16  1  1
 12 17  1  6
M  CHG  2   5  -1  14  -1
M  END
>  <%Rank>  (591) 
45.038168

>  <N_hits>  (591) 
2

>  <submitter_name>  (591) 
nan

>  <original SMILES>  (591) 
nan

>  <∆G_unbound>  (591) 
0.972863

>  <∆G_bound>  (591) 
-6.713229

>  <regarded>  (591) 
5CB5_0_Q_β,5CB5_0_K_α

>  <ref_pdb>  (591) 
nan

>  <smiles>  (591) 
[O-][PH](O)(O)O[PH]([O-])(O)OC1OC(O)C(O)C1O

>  <submitter_email>  (591) 
nan

>  <disregarded>  (591) 


>  <LE>  (591) 
-0.452123

>  <submitter_institution>  (591) 
nan

>  <ref_mols>  (591) 
5CB5_0_Q,5CB5_0_K

>  <N_constrained_atoms>  (591) 
17.0

>  <ref_url>  (591) 
nan

>  <method>  (591) 
nan

>  <comRMSD>  (591) 
0.790228

>  <N_unconstrained_atoms>  (591) 
0.0

>  <∆∆G>  (591) 
-7.686093

>  <runtime>  (591) 
28.100701

>  <generation_date>  (591) 
nan

$$$$
5FUD_1_B_α-mArh-6woj_D_0_D_γ
     RDKit          3D

 23 24  0  0  0  0  0  0  0  0999 V2000
   -1.9530   19.2250   -6.5830 O   0  0  0  0  0  0  0  0  0  0  0  0
   -1.0090   19.7810   -7.7440 S   0  0  0  0  0  0  0  0  0  0  0  0
    0.4430   20.1010   -7.2260 O   0  0  0  0  0  0  0  0  0  0  0  0
   -0.8970   18.6510   -8.8230 O   0  0  0  0  0  0  0  0  0  0  0  0
   -1.8010   21.2010   -8.4520 C   0  0  0  0  0  0  0  0  0  0  0  0
   -2.9140   21.5980   -7.5260 C   0  0  0  0  0  0  0  0  0  0  0  0
    1.0320   19.0180   -6.5360 C   0  0  0  0  0  0  0  0  0  0  0  0
    0.0580   18.4270   -5.5520 C   0  0  0  0  0  0  0  0  0  0  0  0
   -3.6340   22.8030   -7.8890 N   0  0  0  0  0  0  0  0  0  0  0  0
    0.7980   17.8600   -4.3650 C   0  0  0  0  0  0  0  0  0  0  0  0
   -4.4290   22.7030   -9.1400 C   0  0  0  0  0  0  0  0  0  0  0  0
   -4.4460   23.2180   -6.7550 C   0  0  0  0  0  0  0  0  0  0  0  0
    1.2620   16.4270   -4.5480 C   0  0  0  0  0  0  0  0  0  0  0  0
   -5.9560   22.7570   -8.9320 C   0  0  0  0  0  0  0  0  0  0  0  0
   -5.3650   24.3100   -7.2100 C   0  0  0  0  0  0  0  0  0  0  0  0
   -6.3950   23.8280   -8.0830 O   0  0  0  0  0  0  0  0  0  0  0  0
    0.2270   15.3560   -4.4050 C   0  0  2  0  0  0  0  0  0  0  0  0
   -0.0270   15.1650   -3.0080 O   0  0  0  0  0  0  0  0  0  0  0  0
    0.5110   13.9870   -4.9920 C   0  0  1  0  0  0  0  0  0  0  0  0
    1.8560   13.5520   -4.9500 O   0  0  0  0  0  0  0  0  0  0  0  0
   -0.5670   13.8560   -2.8540 C   0  0  0  0  0  0  0  0  0  0  0  0
   -0.3980   13.1000   -4.1720 C   0  0  1  0  0  0  0  0  0  0  0  0
   -1.6070   12.8470   -4.8580 O   0  0  0  0  0  0  0  0  0  0  0  0
  2  1  1  0
  2  3  1  0
  2  4  1  0
  2  5  1  0
  5  6  1  0
  3  7  1  0
  7  8  1  0
  6  9  1  0
  8 10  1  0
  9 11  1  0
  9 12  1  0
 10 13  1  0
 11 14  1  0
 12 15  1  0
 14 16  1  0
 15 16  1  0
 17 13  1  1
 17 18  1  0
 17 19  1  0
 19 20  1  1
 18 21  1  0
 19 22  1  0
 21 22  1  0
 22 23  1  6
M  END
>  <%Rank>  (592) 
45.114504

>  <N_hits>  (592) 
2

>  <submitter_name>  (592) 
nan

>  <original SMILES>  (592) 
nan

>  <∆G_unbound>  (592) 
0.396564

>  <∆G_bound>  (592) 
-10.072005

>  <regarded>  (592) 
5FUD_1_B_α,mArh-6woj_D_0_D_γ

>  <ref_pdb>  (592) 
nan

>  <smiles>  (592) 
OC1COC(CCCCOS(O)(O)CCN2CCOCC2)C1O

>  <submitter_email>  (592) 
nan

>  <disregarded>  (592) 


>  <LE>  (592) 
-0.455155

>  <submitter_institution>  (592) 
nan

>  <ref_mols>  (592) 
5FUD_1_B,mArh-6woj_D_0_D

>  <N_constrained_atoms>  (592) 
20.0

>  <ref_url>  (592) 
nan

>  <method>  (592) 
nan

>  <comRMSD>  (592) 
0.779004

>  <N_unconstrained_atoms>  (592) 
3.0

>  <∆∆G>  (592) 
-10.46857

>  <runtime>  (592) 
62.054198

>  <generation_date>  (592) 
nan

$$$$
mArh-2fav_B_0_B_β-mArh-5cb5_F_1_F_β
     RDKit          3D

  9  8  0  0  0  0  0  0  0  0999 V2000
   -1.6000   20.6080   -7.7570 O   0  0  0  0  0  0  0  0  0  0  0  0
   -0.1150   19.9910   -7.8740 P   0  0  0  0  0  0  0  0  0  0  0  0
   -0.0390   19.1390   -6.6390 O   0  0  0  0  0  0  0  0  0  0  0  0
    1.2130   20.8870   -7.4500 O   0  0  0  0  0  0  0  0  0  0  0  0
    0.1090   18.6090   -8.7970 O   0  0  0  0  0  0  0  0  0  0  0  0
   -1.2970   18.4050   -5.8970 P   0  0  0  0  0  0  0  0  0  0  0  0
   -0.4520   17.1920   -5.5340 O   0  0  0  0  0  0  0  0  0  0  0  0
   -1.5770   18.7210   -4.3380 O   0  0  0  0  0  0  0  0  0  0  0  0
   -2.4430   17.5550   -6.7530 O   0  0  0  0  0  0  0  0  0  0  0  0
  1  2  1  0
  2  3  1  0
  2  4  1  0
  2  5  1  0
  3  6  1  0
  6  7  1  0
  6  8  1  0
  6  9  1  0
M  CHG  2   4  -1   8  -1
M  END
>  <%Rank>  (593) 
45.19084

>  <N_hits>  (593) 
2

>  <submitter_name>  (593) 
nan

>  <original SMILES>  (593) 
nan

>  <∆G_unbound>  (593) 
0.654534

>  <∆G_bound>  (593) 
-6.29959

>  <regarded>  (593) 
mArh-2fav_B_0_B_β,mArh-5cb5_F_1_F_β

>  <ref_pdb>  (593) 
nan

>  <smiles>  (593) 
[O-][PH](O)(O)O[PH]([O-])(O)O

>  <submitter_email>  (593) 
nan

>  <disregarded>  (593) 


>  <LE>  (593) 
-0.77268

>  <submitter_institution>  (593) 
nan

>  <ref_mols>  (593) 
mArh-2fav_B_0_B,mArh-5cb5_F_1_F

>  <N_constrained_atoms>  (593) 
9.0

>  <ref_url>  (593) 
nan

>  <method>  (593) 
nan

>  <comRMSD>  (593) 
0.729114

>  <N_unconstrained_atoms>  (593) 
0.0

>  <∆∆G>  (593) 
-6.954124

>  <runtime>  (593) 
23.91773

>  <generation_date>  (593) 
nan

$$$$
mArh-x0895_1_A_α-mArh-x0104_0_A_β
     RDKit          3D

  9  9  0  0  0  0  0  0  0  0999 V2000
   -1.7030   14.8380    1.6840 O   0  0  0  0  0  0  0  0  0  0  0  0
   -2.7290   14.9370    1.0120 C   0  0  0  0  0  0  0  0  0  0  0  0
   -2.7880   15.1710   -0.4810 C   0  0  0  0  0  0  0  0  0  0  0  0
   -3.9930   14.8540    1.4940 N   0  0  0  0  0  0  0  0  0  0  0  0
   -4.2100   15.3490   -0.6730 N   0  0  0  0  0  0  0  0  0  0  0  0
   -4.8960   14.9460    0.4820 C   0  0  0  0  0  0  0  0  0  0  0  0
   -6.0900   14.7140    0.6020 O   0  0  0  0  0  0  0  0  0  0  0  0
   -4.6750   14.7360   -1.8660 O   0  0  0  0  0  0  0  0  0  0  0  0
   -3.7150   15.0080   -2.8840 C   0  0  0  0  0  0  0  0  0  0  0  0
  1  2  2  0
  2  3  1  0
  2  4  1  0
  3  5  1  0
  4  6  1  0
  5  6  1  0
  6  7  2  0
  5  8  1  0
  8  9  1  0
M  END
>  <%Rank>  (594) 
45.267176

>  <N_hits>  (594) 
2

>  <submitter_name>  (594) 
nan

>  <original SMILES>  (594) 
nan

>  <∆G_unbound>  (594) 
0.054072

>  <∆G_bound>  (594) 
-3.134897

>  <regarded>  (594) 
mArh-x0895_1_A_α,mArh-x0104_0_A_β

>  <ref_pdb>  (594) 
nan

>  <smiles>  (594) 
CON1CC(=O)NC1=O

>  <submitter_email>  (594) 
nan

>  <disregarded>  (594) 


>  <LE>  (594) 
-0.35433

>  <submitter_institution>  (594) 
nan

>  <ref_mols>  (594) 
mArh-x0895_1_A,mArh-x0104_0_A

>  <N_constrained_atoms>  (594) 
9.0

>  <ref_url>  (594) 
nan

>  <method>  (594) 
nan

>  <comRMSD>  (594) 
0.520284

>  <N_unconstrained_atoms>  (594) 
0.0

>  <∆∆G>  (594) 
-3.188969

>  <runtime>  (594) 
23.427952

>  <generation_date>  (594) 
nan

$$$$
2FAV_0_B_β-mArh-5cb5_K_0_K_α
     RDKit          3D

 17 17  0  0  0  0  0  0  0  0999 V2000
   -1.7470   21.0950   -8.7550 O   0  0  0  0  0  0  0  0  0  0  0  0
   -0.5230   20.2650   -7.9110 P   0  0  0  0  0  0  0  0  0  0  0  0
   -0.8910   19.7120   -6.4050 O   0  0  0  0  0  0  0  0  0  0  0  0
   -2.7070   21.7040   -7.9100 C   0  0  2  0  0  0  0  0  0  0  0  0
   -0.0440   21.6030   -7.3700 O   0  0  0  0  0  0  0  0  0  0  0  0
   -0.8630   18.9160   -8.5330 O   0  0  0  0  0  0  0  0  0  0  0  0
   -3.9310   21.1340   -7.9900 O   0  0  0  0  0  0  0  0  0  0  0  0
   -3.1990   23.1130   -8.3370 C   0  0  1  0  0  0  0  0  0  0  0  0
   -0.9980   18.2400   -5.9410 P   0  0  0  0  0  0  0  0  0  0  0  0
   -3.8710   23.0300   -9.5490 O   0  0  0  0  0  0  0  0  0  0  0  0
   -4.8410   21.8860   -7.2760 C   0  0  2  0  0  0  0  0  0  0  0  0
   -4.2820   23.2780   -7.2600 C   0  0  2  0  0  0  0  0  0  0  0  0
   -0.8920   16.7940   -5.4280 O   0  0  0  0  0  0  0  0  0  0  0  0
   -1.3300   18.7690   -4.4270 O   0  0  0  0  0  0  0  0  0  0  0  0
   -2.3130   17.9050   -6.8770 O   0  0  0  0  0  0  0  0  0  0  0  0
   -5.1400   21.4320   -5.9950 O   0  0  0  0  0  0  0  0  0  0  0  0
   -5.2240   24.1780   -7.7710 O   0  0  0  0  0  0  0  0  0  0  0  0
  1  2  1  0
  2  3  1  0
  4  1  1  6
  2  5  1  0
  2  6  1  0
  4  7  1  0
  4  8  1  0
  3  9  1  0
  8 10  1  6
  7 11  1  0
  8 12  1  0
 11 12  1  0
  9 13  1  0
  9 14  1  0
  9 15  1  0
 11 16  1  1
 12 17  1  6
M  CHG  2   5  -1  14  -1
M  END
>  <%Rank>  (595) 
45.343511

>  <N_hits>  (595) 
2

>  <submitter_name>  (595) 
nan

>  <original SMILES>  (595) 
nan

>  <∆G_unbound>  (595) 
0.972863

>  <∆G_bound>  (595) 
-7.354597

>  <regarded>  (595) 
2FAV_0_B_β,mArh-5cb5_K_0_K_α

>  <ref_pdb>  (595) 
nan

>  <smiles>  (595) 
[O-][PH](O)(O)O[PH]([O-])(O)OC1OC(O)C(O)C1O

>  <submitter_email>  (595) 
nan

>  <disregarded>  (595) 


>  <LE>  (595) 
-0.489851

>  <submitter_institution>  (595) 
nan

>  <ref_mols>  (595) 
2FAV_0_B,mArh-5cb5_K_0_K

>  <N_constrained_atoms>  (595) 
17.0

>  <ref_url>  (595) 
nan

>  <method>  (595) 
nan

>  <comRMSD>  (595) 
0.815689

>  <N_unconstrained_atoms>  (595) 
0.0

>  <∆∆G>  (595) 
-8.32746

>  <runtime>  (595) 
27.50135

>  <generation_date>  (595) 
nan

$$$$
mArh-5cb5_E_0_E_β-5DUS_0_A_γ
     RDKit          3D

 16 16  0  0  0  0  0  0  0  0999 V2000
   -1.4470   20.5890   -8.6400 O   0  0  0  0  0  0  0  0  0  0  0  0
   -0.2760   19.8960   -7.8220 P   0  0  0  0  0  0  0  0  0  0  0  0
   -0.8980   19.5160   -6.4300 O   0  0  0  0  0  0  0  0  0  0  0  0
    0.9420   20.7230   -7.7550 O   0  0  0  0  0  0  0  0  0  0  0  0
   -0.1320   18.5360   -8.6410 O   0  0  0  0  0  0  0  0  0  0  0  0
   -1.5030   18.1080   -6.0480 P   0  0  2  0  0  0  0  0  0  0  0  0
   -0.3200   17.0730   -5.6590 O   0  0  0  0  0  0  0  0  0  0  0  0
   -2.5980   17.6210   -6.9180 O   0  0  0  0  0  0  0  0  0  0  0  0
   -2.0220   18.4910   -4.5980 O   0  0  0  0  0  0  0  0  0  0  0  0
   -0.6450   16.0540   -4.7010 C   0  0  2  0  0  0  0  0  0  0  0  0
    0.1470   16.0050   -3.4940 O   0  0  0  0  0  0  0  0  0  0  0  0
   -0.5920   14.5910   -5.1560 C   0  0  1  0  0  0  0  0  0  0  0  0
    0.7210   14.0310   -5.3710 O   0  0  0  0  0  0  0  0  0  0  0  0
   -0.2460   14.7630   -2.8580 C   0  0  0  0  0  0  0  0  0  0  0  0
   -1.1010   14.0070   -3.8730 C   0  0  2  0  0  0  0  0  0  0  0  0
   -0.9020   12.6120   -3.8780 O   0  0  0  0  0  0  0  0  0  0  0  0
  1  2  1  0
  2  3  1  0
  2  4  2  0
  2  5  1  0
  3  6  1  0
  6  7  1  0
  6  8  2  0
  6  9  1  1
 10  7  1  6
 10 11  1  0
 10 12  1  0
 12 13  1  1
 11 14  1  0
 12 15  1  0
 14 15  1  0
 15 16  1  6
M  END
>  <%Rank>  (596) 
45.419847

>  <N_hits>  (596) 
2

>  <submitter_name>  (596) 
nan

>  <original SMILES>  (596) 
nan

>  <∆G_unbound>  (596) 
1.157846

>  <∆G_bound>  (596) 
-7.343637

>  <regarded>  (596) 
mArh-5cb5_E_0_E_β,5DUS_0_A_γ

>  <ref_pdb>  (596) 
nan

>  <smiles>  (596) 
O=P(O)(O)OP(=O)(O)OC1OCC(O)C1O

>  <submitter_email>  (596) 
nan

>  <disregarded>  (596) 


>  <LE>  (596) 
-0.531343

>  <submitter_institution>  (596) 
nan

>  <ref_mols>  (596) 
mArh-5cb5_E_0_E,5DUS_0_A

>  <N_constrained_atoms>  (596) 
16.0

>  <ref_url>  (596) 
nan

>  <method>  (596) 
nan

>  <comRMSD>  (596) 
0.81398

>  <N_unconstrained_atoms>  (596) 
0.0

>  <∆∆G>  (596) 
-8.501482

>  <runtime>  (596) 
25.137361

>  <generation_date>  (596) 
nan

$$$$
5CMS_0_O_α-5CMS_0_J_δ
     RDKit          3D

 26 28  0  0  0  0  0  0  0  0999 V2000
    0.8650   22.8990   -9.8990 C   0  0  0  0  0  0  0  0  0  0  0  0
   -0.6470   22.9350   -9.9560 C   0  0  2  0  0  0  0  0  0  0  0  0
   -1.2520   22.0570  -10.9070 O   0  0  0  0  0  0  0  0  0  0  0  0
   -1.2520   24.2680  -10.2870 C   0  0  1  0  0  0  0  0  0  0  0  0
   -0.6690   24.8970  -11.4280 O   0  0  0  0  0  0  0  0  0  0  0  0
   -2.6390   22.3540  -10.7900 C   0  0  2  0  0  0  0  0  0  0  0  0
   -2.7180   23.8680  -10.5480 C   0  0  2  0  0  0  0  0  0  0  0  0
   -3.1120   21.7140   -9.5910 O   0  0  0  0  0  0  0  0  0  0  0  0
   -3.2380   24.5830  -11.6740 O   0  0  0  0  0  0  0  0  0  0  0  0
   -2.0250   21.5990   -8.6550 C   0  0  0  0  0  0  0  0  0  0  0  0
   -2.4570   20.9520   -7.3450 C   0  0  0  0  0  0  0  0  0  0  0  0
   -1.5420   19.7800   -6.9970 C   0  0  0  0  0  0  0  0  0  0  0  0
   -1.8790   19.0420   -5.6960 C   0  0  0  0  0  0  0  0  0  0  0  0
   -2.1310   17.5410   -5.8600 C   0  0  0  0  0  0  0  0  0  0  0  0
   -1.7340   16.6150   -4.6950 C   0  0  0  0  0  0  0  0  0  0  0  0
   -2.7940   15.7120   -4.0100 C   0  0  0  0  0  0  0  0  0  0  0  0
   -2.5580   15.5980   -2.5010 C   0  0  2  0  0  0  0  0  0  0  0  0
   -1.4880   14.6520   -2.2560 N   0  0  0  0  0  0  0  0  0  0  0  0
   -3.6320   15.1720   -1.5920 N   0  0  0  0  0  0  0  0  0  0  0  0
   -1.6870   14.2530   -0.8870 C   0  0  2  0  0  0  0  0  0  0  0  0
   -2.7530   15.2080   -0.4090 C   0  0  2  0  0  0  0  0  0  0  0  0
   -0.4600   14.2850   -0.1560 N   0  0  0  0  0  0  0  0  0  0  0  0
   -3.1300   14.6740    0.9590 C   0  0  2  0  0  0  0  0  0  0  0  0
   -3.9940   15.5390    1.7420 N   0  0  0  0  0  0  0  0  0  0  0  0
   -0.6510   14.9070    1.1440 C   0  0  0  0  0  0  0  0  0  0  0  0
   -1.9340   14.5070    1.7640 N   0  0  0  0  0  0  0  0  0  0  0  0
  2  1  1  6
  2  3  1  0
  2  4  1  0
  4  5  1  6
  3  6  1  0
  4  7  1  0
  6  7  1  0
  6  8  1  1
  7  9  1  6
  8 10  1  0
 10 11  1  0
 11 12  1  0
 12 13  1  0
 13 14  1  0
 14 15  1  0
 15 16  1  0
 17 16  1  6
 17 18  1  0
 17 19  1  0
 20 18  1  6
 21 19  1  6
 20 21  1  0
 20 22  1  0
 21 23  1  0
 23 24  1  1
 22 25  1  0
 23 26  1  0
 25 26  1  0
M  END
>  <%Rank>  (597) 
45.496183

>  <N_hits>  (597) 
2

>  <submitter_name>  (597) 
nan

>  <original SMILES>  (597) 
nan

>  <∆G_unbound>  (597) 
0.40203

>  <∆G_bound>  (597) 
-8.272471

>  <regarded>  (597) 
5CMS_0_O_α,5CMS_0_J_δ

>  <ref_pdb>  (597) 
nan

>  <smiles>  (597) 
CC1OC(OCCCCCCCC2NC3NCNC(N)C3N2)C(O)C1O

>  <submitter_email>  (597) 
nan

>  <disregarded>  (597) 


>  <LE>  (597) 
-0.333635

>  <submitter_institution>  (597) 
nan

>  <ref_mols>  (597) 
5CMS_0_O,5CMS_0_J

>  <N_constrained_atoms>  (597) 
19.0

>  <ref_url>  (597) 
nan

>  <method>  (597) 
nan

>  <comRMSD>  (597) 
0.59523

>  <N_unconstrained_atoms>  (597) 
7.0

>  <∆∆G>  (597) 
-8.6745

>  <runtime>  (597) 
57.83788

>  <generation_date>  (597) 
nan

$$$$
mArh-5cms_P_15_P_β-5CMS_0_I_β
     RDKit          3D

  9  8  0  0  0  0  0  0  0  0999 V2000
   -0.9870   20.8660   -8.7210 O   0  0  0  0  0  0  0  0  0  0  0  0
   -0.3110   19.7750   -7.8000 P   0  0  0  0  0  0  0  0  0  0  0  0
   -1.4640   19.4380   -6.8010 O   0  0  0  0  0  0  0  0  0  0  0  0
    1.0200   20.1630   -7.2920 O   0  0  0  0  0  0  0  0  0  0  0  0
   -0.1990   18.5470   -8.8020 O   0  0  0  0  0  0  0  0  0  0  0  0
   -1.7260   18.0630   -6.0820 P   0  0  0  0  0  0  0  0  0  0  0  0
   -0.3430   17.2790   -6.1240 O   0  0  0  0  0  0  0  0  0  0  0  0
   -2.8400   17.3050   -6.6880 O   0  0  0  0  0  0  0  0  0  0  0  0
   -1.8660   18.4410   -4.5490 O   0  0  0  0  0  0  0  0  0  0  0  0
  1  2  1  0
  2  3  1  0
  2  4  2  0
  2  5  1  0
  3  6  1  0
  6  7  1  0
  6  8  2  0
  6  9  1  0
M  END
>  <%Rank>  (598) 
45.572519

>  <N_hits>  (598) 
2

>  <submitter_name>  (598) 
nan

>  <original SMILES>  (598) 
nan

>  <∆G_unbound>  (598) 
0.687887

>  <∆G_bound>  (598) 
-6.89026

>  <regarded>  (598) 
mArh-5cms_P_15_P_β,5CMS_0_I_β

>  <ref_pdb>  (598) 
nan

>  <smiles>  (598) 
O=P(O)(O)OP(=O)(O)O

>  <submitter_email>  (598) 
nan

>  <disregarded>  (598) 


>  <LE>  (598) 
-0.842016

>  <submitter_institution>  (598) 
nan

>  <ref_mols>  (598) 
mArh-5cms_P_15_P,5CMS_0_I

>  <N_constrained_atoms>  (598) 
9.0

>  <ref_url>  (598) 
nan

>  <method>  (598) 
nan

>  <comRMSD>  (598) 
0.76846

>  <N_unconstrained_atoms>  (598) 
0.0

>  <∆∆G>  (598) 
-7.578147

>  <runtime>  (598) 
22.879212

>  <generation_date>  (598) 
nan

$$$$
mArh-5cb5_P_0_P_α-mArh-1hjz_A_0_A_α
     RDKit          3D

 14 14  0  0  0  0  0  0  0  0999 V2000
   -1.9950   21.5890   -7.6610 C   0  0  2  0  0  0  0  0  0  0  0  0
   -1.3110   22.8950   -7.4700 C   0  0  0  0  0  0  0  0  0  0  0  0
   -0.6470   20.3460   -7.8600 S   0  0  0  0  0  0  0  0  0  0  0  0
   -3.1280   21.9140   -8.6720 C   0  0  1  0  0  0  0  0  0  0  0  0
    0.5860   21.1420   -7.8430 O   0  0  0  0  0  0  0  0  0  0  0  0
   -0.8770   19.6230   -9.0780 O   0  0  0  0  0  0  0  0  0  0  0  0
   -0.7470   19.4870   -6.6820 O   0  0  0  0  0  0  0  0  0  0  0  0
   -4.3620   21.3290   -8.2600 O   0  0  0  0  0  0  0  0  0  0  0  0
   -3.6070   23.3910   -8.5140 C   0  0  1  0  0  0  0  0  0  0  0  0
   -4.5620   23.8510   -9.4920 O   0  0  0  0  0  0  0  0  0  0  0  0
   -4.5470   21.8490   -6.9510 C   0  0  1  0  0  0  0  0  0  0  0  0
   -4.3060   23.3540   -7.1260 C   0  0  2  0  0  0  0  0  0  0  0  0
   -5.8660   21.5560   -6.5120 O   0  0  0  0  0  0  0  0  0  0  0  0
   -5.5600   24.0730   -7.0950 O   0  0  0  0  0  0  0  0  0  0  0  0
  1  2  1  6
  1  3  1  0
  1  4  1  0
  3  5  2  0
  3  6  2  0
  3  7  1  0
  4  8  1  1
  4  9  1  0
  9 10  1  6
  8 11  1  0
  9 12  1  0
 11 12  1  0
 11 13  1  6
 12 14  1  6
M  CHG  1   7  -1
M  END
>  <%Rank>  (599) 
45.648855

>  <N_hits>  (599) 
2

>  <submitter_name>  (599) 
nan

>  <original SMILES>  (599) 
nan

>  <∆G_unbound>  (599) 
0.594065

>  <∆G_bound>  (599) 
-9.011983

>  <regarded>  (599) 
mArh-5cb5_P_0_P_α,mArh-1hjz_A_0_A_α

>  <ref_pdb>  (599) 
nan

>  <smiles>  (599) 
CC(C1OC(O)C(O)C1O)S(=O)(=O)[O-]

>  <submitter_email>  (599) 
nan

>  <disregarded>  (599) 


>  <LE>  (599) 
-0.686146

>  <submitter_institution>  (599) 
nan

>  <ref_mols>  (599) 
mArh-5cb5_P_0_P,mArh-1hjz_A_0_A

>  <N_constrained_atoms>  (599) 
14.0

>  <ref_url>  (599) 
nan

>  <method>  (599) 
nan

>  <comRMSD>  (599) 
0.84347

>  <N_unconstrained_atoms>  (599) 
0.0

>  <∆∆G>  (599) 
-9.606049

>  <runtime>  (599) 
24.345243

>  <generation_date>  (599) 
nan

$$$$
5L9K_0_A_β-6MEA_0_A_γ
     RDKit          3D

 18 18  0  0  0  0  0  0  0  0999 V2000
   -1.8840   20.9130   -8.6420 O   0  0  0  0  0  0  0  0  0  0  0  0
   -0.9180   19.7760   -7.9040 P   0  0  0  0  0  0  0  0  0  0  0  0
   -1.1110   19.5000   -6.3390 O   0  0  0  0  0  0  0  0  0  0  0  0
   -0.0140   18.7520   -8.8200 O   0  0  0  0  0  0  0  0  0  0  0  0
    0.2350   20.7320   -7.7190 O   0  0  0  0  0  0  0  0  0  0  0  0
   -2.0700   18.2360   -6.0210 P   0  0  0  0  0  0  0  0  0  0  0  0
   -0.9120   17.2500   -6.0340 O   0  0  0  0  0  0  0  0  0  0  0  0
   -2.2420   17.7860   -4.4250 O   0  0  0  0  0  0  0  0  0  0  0  0
   -2.9370   17.4430   -7.0460 O   0  0  0  0  0  0  0  0  0  0  0  0
    0.3420   17.7130   -5.6650 C   0  0  0  0  0  0  0  0  0  0  0  0
    0.9300   16.6790   -4.8090 C   0  0  0  0  0  0  0  0  0  0  0  0
   -0.0500   15.7120   -4.2790 C   0  0  2  0  0  0  0  0  0  0  0  0
    0.2370   15.3470   -2.9630 O   0  0  0  0  0  0  0  0  0  0  0  0
   -0.1160   14.3940   -4.9450 C   0  0  1  0  0  0  0  0  0  0  0  0
    1.1090   13.7310   -4.8870 O   0  0  0  0  0  0  0  0  0  0  0  0
   -0.5410   14.2410   -2.6980 C   0  0  0  0  0  0  0  0  0  0  0  0
   -1.0750   13.7410   -4.0160 C   0  0  2  0  0  0  0  0  0  0  0  0
   -0.9160   12.3670   -4.2080 O   0  0  0  0  0  0  0  0  0  0  0  0
  1  2  1  0
  2  3  1  0
  2  4  1  0
  2  5  1  0
  3  6  1  0
  6  7  1  0
  6  8  1  0
  6  9  1  0
  7 10  1  0
 10 11  1  0
 12 11  1  6
 12 13  1  0
 12 14  1  0
 14 15  1  1
 13 16  1  0
 14 17  1  0
 16 17  1  0
 17 18  1  1
M  CHG  2   4  -1   8  -1
M  END
>  <%Rank>  (600) 
45.725191

>  <N_hits>  (600) 
2

>  <submitter_name>  (600) 
nan

>  <original SMILES>  (600) 
nan

>  <∆G_unbound>  (600) 
0.600635

>  <∆G_bound>  (600) 
-7.478178

>  <regarded>  (600) 
5L9K_0_A_β,6MEA_0_A_γ

>  <ref_pdb>  (600) 
nan

>  <smiles>  (600) 
[O-][PH](O)(O)O[PH]([O-])(O)OCCC1OCC(O)C1O

>  <submitter_email>  (600) 
nan

>  <disregarded>  (600) 


>  <LE>  (600) 
-0.448823

>  <submitter_institution>  (600) 
nan

>  <ref_mols>  (600) 
5L9K_0_A,6MEA_0_A

>  <N_constrained_atoms>  (600) 
17.0

>  <ref_url>  (600) 
nan

>  <method>  (600) 
nan

>  <comRMSD>  (600) 
0.767114

>  <N_unconstrained_atoms>  (600) 
1.0

>  <∆∆G>  (600) 
-8.078813

>  <runtime>  (600) 
50.987427

>  <generation_date>  (600) 
nan

$$$$
5CMS_0_D_α-6FX7_0_A_α
     RDKit          3D

 19 19  0  0  0  0  0  0  0  0999 V2000
   -0.6970   16.7920   -5.5610 O   0  0  0  0  0  0  0  0  0  0  0  0
   -1.7710   17.8850   -6.1380 P   0  0  0  0  0  0  0  0  0  0  0  0
   -2.9610   16.9120   -5.9700 O   0  0  0  0  0  0  0  0  0  0  0  0
   -2.3830   18.9730   -5.0550 O   0  0  0  0  0  0  0  0  0  0  0  0
   -0.7520   18.9710   -6.3930 O   0  0  0  0  0  0  0  0  0  0  0  0
   -0.5850   19.5510   -7.8800 P   0  0  0  0  0  0  0  0  0  0  0  0
   -1.3660   20.8670   -8.4110 O   0  0  0  0  0  0  0  0  0  0  0  0
    0.1790   18.5620   -8.9640 O   0  0  0  0  0  0  0  0  0  0  0  0
    0.7040   20.2710   -7.5680 O   0  0  0  0  0  0  0  0  0  0  0  0
   -1.1970   21.9410   -7.6000 C   0  0  0  0  0  0  0  0  0  0  0  0
   -2.3010   22.9710   -7.7530 C   0  0  0  0  0  0  0  0  0  0  0  0
   -3.2890   22.5210   -8.7810 C   0  0  2  0  0  0  0  0  0  0  0  0
   -3.6050   23.4890   -9.7100 O   0  0  0  0  0  0  0  0  0  0  0  0
   -4.6570   22.2570   -8.2030 C   0  0  1  0  0  0  0  0  0  0  0  0
   -4.9380   23.1760   -7.2080 O   0  0  0  0  0  0  0  0  0  0  0  0
   -4.5540   22.8230  -10.4420 C   0  0  1  0  0  0  0  0  0  0  0  0
   -5.5570   22.5110   -9.4060 C   0  0  2  0  0  0  0  0  0  0  0  0
   -4.9900   23.6090  -11.5060 O   0  0  0  0  0  0  0  0  0  0  0  0
   -6.3890   23.6080   -9.1740 O   0  0  0  0  0  0  0  0  0  0  0  0
  1  2  1  0
  2  3  1  0
  2  4  1  0
  2  5  1  0
  5  6  1  0
  6  7  1  0
  6  8  1  0
  6  9  1  0
  7 10  1  0
 10 11  1  0
 12 11  1  1
 12 13  1  0
 12 14  1  0
 14 15  1  1
 13 16  1  0
 14 17  1  0
 16 17  1  0
 16 18  1  6
 17 19  1  1
M  CHG  2   3  -1   8  -1
M  END
>  <%Rank>  (601) 
45.801527

>  <N_hits>  (601) 
2

>  <submitter_name>  (601) 
nan

>  <original SMILES>  (601) 
nan

>  <∆G_unbound>  (601) 
0.579885

>  <∆G_bound>  (601) 
-7.525085

>  <regarded>  (601) 
5CMS_0_D_α,6FX7_0_A_α

>  <ref_pdb>  (601) 
nan

>  <smiles>  (601) 
[O-][PH](O)(O)O[PH]([O-])(O)OCCC1OC(O)C(O)C1O

>  <submitter_email>  (601) 
nan

>  <disregarded>  (601) 


>  <LE>  (601) 
-0.426577

>  <submitter_institution>  (601) 
nan

>  <ref_mols>  (601) 
5CMS_0_D,6FX7_0_A

>  <N_constrained_atoms>  (601) 
18.0

>  <ref_url>  (601) 
nan

>  <method>  (601) 
nan

>  <comRMSD>  (601) 
0.779732

>  <N_unconstrained_atoms>  (601) 
1.0

>  <∆∆G>  (601) 
-8.104971

>  <runtime>  (601) 
35.34926

>  <generation_date>  (601) 
nan

$$$$
mArh-5cb5_N_0_N_α-5CB5_0_P_γ
     RDKit          3D

 22 23  0  0  0  0  0  0  0  0999 V2000
   -2.1160   21.5840   -8.7490 C   0  0  0  0  0  0  0  0  0  0  0  0
   -3.4370   22.1290   -8.2710 C   0  0  2  0  0  0  0  0  0  0  0  0
   -4.4400   21.1520   -8.4680 O   0  0  0  0  0  0  0  0  0  0  0  0
   -4.0490   23.3640   -8.9160 C   0  0  1  0  0  0  0  0  0  0  0  0
   -4.1250   23.3270  -10.3430 O   0  0  0  0  0  0  0  0  0  0  0  0
   -5.5350   21.8100   -7.8750 C   0  0  2  0  0  0  0  0  0  0  0  0
   -5.4810   23.2480   -8.4180 C   0  0  1  0  0  0  0  0  0  0  0  0
   -5.3550   21.9010   -6.4720 O   0  0  0  0  0  0  0  0  0  0  0  0
   -5.7640   24.2590   -7.4570 O   0  0  0  0  0  0  0  0  0  0  0  0
   -4.5240   20.9010   -5.9120 C   0  0  0  0  0  0  0  0  0  0  0  0
   -2.9870   20.9030   -5.9850 C   0  0  0  0  0  0  0  0  0  0  0  0
   -2.3990   19.5410   -6.4520 C   0  0  0  0  0  0  0  0  0  0  0  0
   -1.4340   18.9360   -5.4080 C   0  0  0  0  0  0  0  0  0  0  0  0
   -1.3070   17.3990   -5.3890 C   0  0  0  0  0  0  0  0  0  0  0  0
    0.1700   16.9320   -5.3170 C   0  0  0  0  0  0  0  0  0  0  0  0
    0.5170   15.7950   -4.3180 C   0  0  1  0  0  0  0  0  0  0  0  0
   -0.3870   15.8730   -3.2000 O   0  0  0  0  0  0  0  0  0  0  0  0
    0.4590   14.3160   -4.7410 C   0  0  2  0  0  0  0  0  0  0  0  0
    0.6680   13.9860   -6.0860 O   0  0  0  0  0  0  0  0  0  0  0  0
   -0.9940   14.6010   -2.9640 C   0  0  0  0  0  0  0  0  0  0  0  0
   -0.9090   13.8660   -4.2750 C   0  0  2  0  0  0  0  0  0  0  0  0
   -0.9360   12.4560   -4.1560 O   0  0  0  0  0  0  0  0  0  0  0  0
  2  1  1  6
  2  3  1  0
  2  4  1  0
  4  5  1  6
  3  6  1  0
  4  7  1  0
  6  7  1  0
  6  8  1  1
  7  9  1  1
  8 10  1  0
 10 11  1  0
 11 12  1  0
 12 13  1  0
 13 14  1  0
 14 15  1  0
 16 15  1  6
 16 17  1  0
 16 18  1  0
 18 19  1  6
 17 20  1  0
 18 21  1  0
 20 21  1  0
 21 22  1  1
M  END
>  <%Rank>  (602) 
45.877863

>  <N_hits>  (602) 
2

>  <submitter_name>  (602) 
nan

>  <original SMILES>  (602) 
nan

>  <∆G_unbound>  (602) 
0.187336

>  <∆G_bound>  (602) 
-7.616621

>  <regarded>  (602) 
mArh-5cb5_N_0_N_α,5CB5_0_P_γ

>  <ref_pdb>  (602) 
nan

>  <smiles>  (602) 
CC1OC(OCCCCCCC2OCC(O)C2O)C(O)C1O

>  <submitter_email>  (602) 
nan

>  <disregarded>  (602) 


>  <LE>  (602) 
-0.354725

>  <submitter_institution>  (602) 
nan

>  <ref_mols>  (602) 
mArh-5cb5_N_0_N,5CB5_0_P

>  <N_constrained_atoms>  (602) 
17.0

>  <ref_url>  (602) 
nan

>  <method>  (602) 
nan

>  <comRMSD>  (602) 
0.603507

>  <N_unconstrained_atoms>  (602) 
5.0

>  <∆∆G>  (602) 
-7.803956

>  <runtime>  (602) 
38.994172

>  <generation_date>  (602) 
nan

$$$$
2BFQ_1_A_γ-5CMS_0_H_β
     RDKit          3D

 16 16  0  0  0  0  0  0  0  0999 V2000
   -1.6710   13.1610   -3.8940 O   0  0  0  0  0  0  0  0  0  0  0  0
   -0.4300   13.7750   -3.7390 C   0  0  2  0  0  0  0  0  0  0  0  0
   -0.4170   14.8130   -2.6190 C   0  0  0  0  0  0  0  0  0  0  0  0
   -0.0340   14.5660   -4.9540 C   0  0  2  0  0  0  0  0  0  0  0  0
    1.3500   14.4280   -5.0590 O   0  0  0  0  0  0  0  0  0  0  0  0
    0.0890   15.9760   -3.2310 O   0  0  0  0  0  0  0  0  0  0  0  0
   -0.4710   15.8970   -4.4830 C   0  0  1  0  0  0  0  0  0  0  0  0
   -0.2750   17.1380   -5.3640 C   0  0  0  0  0  0  0  0  0  0  0  0
   -1.8310   17.8560   -5.7340 P   0  0  0  0  0  0  0  0  0  0  0  0
   -1.6610   18.5530   -7.0870 O   0  0  0  0  0  0  0  0  0  0  0  0
   -2.9640   16.9420   -6.6110 O   0  0  0  0  0  0  0  0  0  0  0  0
   -2.2810   19.2270   -5.0510 O   0  0  0  0  0  0  0  0  0  0  0  0
   -0.2820   19.0350   -7.6990 P   0  0  0  0  0  0  0  0  0  0  0  0
   -0.8180   20.3960   -8.1710 O   0  0  0  0  0  0  0  0  0  0  0  0
    0.9290   19.8010   -6.8810 O   0  0  0  0  0  0  0  0  0  0  0  0
    0.1370   18.4840   -9.1550 O   0  0  0  0  0  0  0  0  0  0  0  0
  2  1  1  6
  2  3  1  0
  2  4  1  0
  4  5  1  1
  3  6  1  0
  4  7  1  0
  6  7  1  0
  7  8  1  6
  8  9  1  0
  9 10  1  0
  9 11  1  0
  9 12  1  0
 10 13  1  0
 13 14  1  0
 13 15  1  0
 13 16  1  0
M  CHG  2  11  -1  15  -1
M  END
>  <%Rank>  (603) 
45.954198

>  <N_hits>  (603) 
2

>  <submitter_name>  (603) 
nan

>  <original SMILES>  (603) 
nan

>  <∆G_unbound>  (603) 
0.683631

>  <∆G_bound>  (603) 
-6.342898

>  <regarded>  (603) 
2BFQ_1_A_γ,5CMS_0_H_β

>  <ref_pdb>  (603) 
nan

>  <smiles>  (603) 
[O-][PH](O)(O)O[PH]([O-])(O)CC1OCC(O)C1O

>  <submitter_email>  (603) 
nan

>  <disregarded>  (603) 


>  <LE>  (603) 
-0.439158

>  <submitter_institution>  (603) 
nan

>  <ref_mols>  (603) 
2BFQ_1_A,5CMS_0_H

>  <N_constrained_atoms>  (603) 
16.0

>  <ref_url>  (603) 
nan

>  <method>  (603) 
nan

>  <comRMSD>  (603) 
0.770399

>  <N_unconstrained_atoms>  (603) 
0.0

>  <∆∆G>  (603) 
-7.026529

>  <runtime>  (603) 
48.031083

>  <generation_date>  (603) 
nan

$$$$
5L9K_0_B_γ-mArh-mac-120_0_A_α
     RDKit          3D

 17 18  0  0  0  0  0  0  0  0999 V2000
   -2.2630   12.3770   -4.2400 O   0  0  0  0  0  0  0  0  0  0  0  0
   -2.0620   13.7890   -4.1340 C   0  0  1  0  0  0  0  0  0  0  0  0
   -1.1090   14.1220   -3.0210 C   0  0  1  0  0  0  0  0  0  0  0  0
   -1.1420   14.3300   -5.1910 C   0  0  2  0  0  0  0  0  0  0  0  0
    0.0330   13.5560   -5.3620 O   0  0  0  0  0  0  0  0  0  0  0  0
   -0.8440   15.5360   -3.2030 O   0  0  0  0  0  0  0  0  0  0  0  0
   -0.9670   15.7510   -4.6310 C   0  0  1  0  0  0  0  0  0  0  0  0
   -1.6160   13.7320   -1.6440 C   0  0  0  0  0  0  0  0  0  0  0  0
    0.1920   16.5980   -5.1510 C   0  0  0  0  0  0  0  0  0  0  0  0
   -2.9760   14.2120   -1.2080 C   0  0  0  0  0  0  0  0  0  0  0  0
   -2.9040   14.6170    0.0570 N   0  0  0  0  0  0  0  0  0  0  0  0
   -4.1730   14.2420   -1.9540 C   0  0  0  0  0  0  0  0  0  0  0  0
   -5.3340   14.7110   -1.3070 C   0  0  0  0  0  0  0  0  0  0  0  0
   -3.9990   15.0530    0.6410 C   0  0  0  0  0  0  0  0  0  0  0  0
   -6.6720   14.7870   -1.9830 C   0  0  0  0  0  0  0  0  0  0  0  0
   -3.8470   15.4540    1.9450 N   0  0  0  0  0  0  0  0  0  0  0  0
   -5.2200   15.1130    0.0130 C   0  0  0  0  0  0  0  0  0  0  0  0
  2  1  1  6
  2  3  1  0
  2  4  1  0
  4  5  1  1
  3  6  1  0
  4  7  1  0
  6  7  1  0
  3  8  1  1
  7  9  1  6
  8 10  1  0
 10 11  2  0
 10 12  1  0
 12 13  2  0
 11 14  1  0
 13 15  1  0
 14 16  1  0
 13 17  1  0
 14 17  2  0
M  END
>  <%Rank>  (604) 
46.030534

>  <N_hits>  (604) 
2

>  <submitter_name>  (604) 
nan

>  <original SMILES>  (604) 
nan

>  <∆G_unbound>  (604) 
0.17713

>  <∆G_bound>  (604) 
-5.111645

>  <regarded>  (604) 
5L9K_0_B_γ,mArh-mac-120_0_A_α

>  <ref_pdb>  (604) 
nan

>  <smiles>  (604) 
Cc1cc(N)nc(CC2OC(C)C(O)C2O)c1

>  <submitter_email>  (604) 
nan

>  <disregarded>  (604) 


>  <LE>  (604) 
-0.311104

>  <submitter_institution>  (604) 
nan

>  <ref_mols>  (604) 
5L9K_0_B,mArh-mac-120_0_A

>  <N_constrained_atoms>  (604) 
16.0

>  <ref_url>  (604) 
nan

>  <method>  (604) 
nan

>  <comRMSD>  (604) 
0.67514

>  <N_unconstrained_atoms>  (604) 
1.0

>  <∆∆G>  (604) 
-5.288776

>  <runtime>  (604) 
32.679905

>  <generation_date>  (604) 
nan

$$$$
mArh-6woj_A_0_A_α-mArh-x0918_0_B_α
     RDKit          3D

 19 20  0  0  0  0  0  0  0  0999 V2000
   -1.6820   21.8890   -7.8040 C   0  0  0  0  0  0  0  0  0  0  0  0
   -3.1150   22.0800   -8.2910 C   0  0  1  0  0  0  0  0  0  0  0  0
   -3.9280   21.2720   -7.4230 O   0  0  0  0  0  0  0  0  0  0  0  0
   -3.5900   23.5500   -8.1870 C   0  0  1  0  0  0  0  0  0  0  0  0
   -4.2820   24.0470   -9.4190 O   0  0  0  0  0  0  0  0  0  0  0  0
   -5.0280   22.0600   -6.9920 C   0  0  2  0  0  0  0  0  0  0  0  0
   -4.4400   23.4650   -6.9150 C   0  0  2  0  0  0  0  0  0  0  0  0
   -5.5130   21.6140   -5.7310 O   0  0  0  0  0  0  0  0  0  0  0  0
   -5.4160   24.4690   -6.7480 O   0  0  0  0  0  0  0  0  0  0  0  0
   -5.7220   24.2150   -9.5280 C   0  0  0  0  0  0  0  0  0  0  0  0
   -6.1820   25.3210  -10.5650 C   0  0  0  0  0  0  0  0  0  0  0  0
   -5.1300   25.8670  -11.5830 C   0  0  0  0  0  0  0  0  0  0  0  0
   -5.3890   27.2610  -12.2380 C   0  0  0  0  0  0  0  0  0  0  0  0
   -6.6250   27.8310  -12.1640 N   0  0  0  0  0  0  0  0  0  0  0  0
   -4.3420   27.9080  -12.9290 C   0  0  0  0  0  0  0  0  0  0  0  0
   -4.5610   29.1340  -13.5660 C   0  0  0  0  0  0  0  0  0  0  0  0
   -6.8100   29.0230  -12.7920 C   0  0  0  0  0  0  0  0  0  0  0  0
   -3.5280   29.7780  -14.2630 N   0  0  0  0  0  0  0  0  0  0  0  0
   -5.8270   29.6930  -13.4960 C   0  0  0  0  0  0  0  0  0  0  0  0
  2  1  1  1
  2  3  1  0
  2  4  1  0
  4  5  1  6
  3  6  1  0
  4  7  1  0
  6  7  1  0
  6  8  1  1
  7  9  1  6
  5 10  1  0
 10 11  1  0
 11 12  1  0
 12 13  1  0
 13 14  2  0
 13 15  1  0
 15 16  2  0
 14 17  1  0
 16 18  1  0
 16 19  1  0
 17 19  2  0
M  END
>  <%Rank>  (605) 
46.10687

>  <N_hits>  (605) 
2

>  <submitter_name>  (605) 
nan

>  <original SMILES>  (605) 
nan

>  <∆G_unbound>  (605) 
0.139909

>  <∆G_bound>  (605) 
-8.309702

>  <regarded>  (605) 
mArh-6woj_A_0_A_α,mArh-x0918_0_B_α

>  <ref_pdb>  (605) 
nan

>  <smiles>  (605) 
CC1OC(O)C(O)C1OCCCc1cc(N)ccn1

>  <submitter_email>  (605) 
nan

>  <disregarded>  (605) 


>  <LE>  (605) 
-0.444716

>  <submitter_institution>  (605) 
nan

>  <ref_mols>  (605) 
mArh-6woj_A_0_A,mArh-x0918_0_B

>  <N_constrained_atoms>  (605) 
16.0

>  <ref_url>  (605) 
nan

>  <method>  (605) 
nan

>  <comRMSD>  (605) 
0.680275

>  <N_unconstrained_atoms>  (605) 
3.0

>  <∆∆G>  (605) 
-8.449611

>  <runtime>  (605) 
45.267454

>  <generation_date>  (605) 
nan

$$$$
mArh-5cb5_A_0_A_α-mArh-5cms_I_8_I_γ
     RDKit          3D

 22 23  0  0  0  0  0  0  0  0999 V2000
   -2.2520   21.4760   -8.5310 C   0  0  0  0  0  0  0  0  0  0  0  0
   -3.5770   21.9870   -9.0950 C   0  0  1  0  0  0  0  0  0  0  0  0
   -4.6830   21.1900   -8.6320 O   0  0  0  0  0  0  0  0  0  0  0  0
   -3.8560   23.4160   -8.6770 C   0  0  1  0  0  0  0  0  0  0  0  0
   -4.3450   24.1520   -9.7960 O   0  0  0  0  0  0  0  0  0  0  0  0
   -5.4740   21.9070   -7.6810 C   0  0  2  0  0  0  0  0  0  0  0  0
   -5.0150   23.3710   -7.6990 C   0  0  2  0  0  0  0  0  0  0  0  0
   -5.2150   21.3530   -6.4090 O   0  0  0  0  0  0  0  0  0  0  0  0
   -6.0270   24.2460   -8.2020 O   0  0  0  0  0  0  0  0  0  0  0  0
   -4.1650   20.4380   -6.6920 C   0  0  0  0  0  0  0  0  0  0  0  0
   -2.9170   20.4310   -5.8260 C   0  0  0  0  0  0  0  0  0  0  0  0
   -2.0570   19.2350   -6.2660 C   0  0  0  0  0  0  0  0  0  0  0  0
   -1.1580   18.7210   -5.1580 C   0  0  0  0  0  0  0  0  0  0  0  0
   -0.9370   17.2250   -5.1920 C   0  0  0  0  0  0  0  0  0  0  0  0
    0.5550   16.9070   -5.1110 C   0  0  0  0  0  0  0  0  0  0  0  0
    0.8550   15.5670   -4.4340 C   0  0  1  0  0  0  0  0  0  0  0  0
    0.2520   15.5820   -3.1110 O   0  0  0  0  0  0  0  0  0  0  0  0
    0.2830   14.3300   -5.1290 C   0  0  1  0  0  0  0  0  0  0  0  0
    1.0390   13.1420   -5.0090 O   0  0  0  0  0  0  0  0  0  0  0  0
   -0.7370   14.5440   -3.0470 C   0  0  0  0  0  0  0  0  0  0  0  0
   -1.0850   14.2060   -4.4830 C   0  0  2  0  0  0  0  0  0  0  0  0
   -1.6260   12.9080   -4.6690 O   0  0  0  0  0  0  0  0  0  0  0  0
  2  1  1  1
  2  3  1  0
  2  4  1  0
  4  5  1  6
  3  6  1  0
  4  7  1  0
  6  7  1  0
  6  8  1  1
  7  9  1  6
  8 10  1  0
 10 11  1  0
 11 12  1  0
 12 13  1  0
 13 14  1  0
 14 15  1  0
 16 15  1  6
 16 17  1  0
 16 18  1  0
 18 19  1  1
 17 20  1  0
 18 21  1  0
 20 21  1  0
 21 22  1  1
M  END
>  <%Rank>  (606) 
46.183206

>  <N_hits>  (606) 
2

>  <submitter_name>  (606) 
nan

>  <original SMILES>  (606) 
nan

>  <∆G_unbound>  (606) 
0.187336

>  <∆G_bound>  (606) 
-10.347216

>  <regarded>  (606) 
mArh-5cb5_A_0_A_α,mArh-5cms_I_8_I_γ

>  <ref_pdb>  (606) 
nan

>  <smiles>  (606) 
CC1OC(OCCCCCCC2OCC(O)C2O)C(O)C1O

>  <submitter_email>  (606) 
nan

>  <disregarded>  (606) 


>  <LE>  (606) 
-0.478843

>  <submitter_institution>  (606) 
nan

>  <ref_mols>  (606) 
mArh-5cb5_A_0_A,mArh-5cms_I_8_I

>  <N_constrained_atoms>  (606) 
17.0

>  <ref_url>  (606) 
nan

>  <method>  (606) 
nan

>  <comRMSD>  (606) 
0.667129

>  <N_unconstrained_atoms>  (606) 
5.0

>  <∆∆G>  (606) 
-10.534551

>  <runtime>  (606) 
39.196569

>  <generation_date>  (606) 
nan

$$$$
5CMS_0_Q_α-mArh-5cms_N_13_N_γ
     RDKit          3D

 22 23  0  0  0  0  0  0  0  0999 V2000
   -1.7360   22.2230   -7.5980 C   0  0  0  0  0  0  0  0  0  0  0  0
   -1.5740   22.0320   -9.0930 C   0  0  1  0  0  0  0  0  0  0  0  0
   -2.8820   21.9080   -9.6690 O   0  0  0  0  0  0  0  0  0  0  0  0
   -0.8500   23.2140   -9.7410 C   0  0  1  0  0  0  0  0  0  0  0  0
    0.4330   22.7230  -10.1110 O   0  0  0  0  0  0  0  0  0  0  0  0
   -3.0620   23.0110  -10.5390 C   0  0  1  0  0  0  0  0  0  0  0  0
   -1.6790   23.4630  -10.9900 C   0  0  1  0  0  0  0  0  0  0  0  0
   -3.9190   22.6360  -11.6030 O   0  0  0  0  0  0  0  0  0  0  0  0
   -1.6300   24.8460  -11.3670 O   0  0  0  0  0  0  0  0  0  0  0  0
    1.3610   22.4890   -9.0500 C   0  0  0  0  0  0  0  0  0  0  0  0
    0.8380   21.6390   -7.8510 C   0  0  0  0  0  0  0  0  0  0  0  0
    0.0560   20.2870   -8.0390 C   0  0  0  0  0  0  0  0  0  0  0  0
   -0.1010   19.5470   -6.6980 C   0  0  0  0  0  0  0  0  0  0  0  0
   -0.4890   18.0820   -6.6850 C   0  0  0  0  0  0  0  0  0  0  0  0
    0.4510   17.1830   -5.8210 C   0  0  0  0  0  0  0  0  0  0  0  0
   -0.0950   15.8830   -5.1910 C   0  0  2  0  0  0  0  0  0  0  0  0
   -0.0720   16.1040   -3.7570 O   0  0  0  0  0  0  0  0  0  0  0  0
    0.6590   14.5400   -5.3630 C   0  0  2  0  0  0  0  0  0  0  0  0
    0.3410   13.6940   -6.4490 O   0  0  0  0  0  0  0  0  0  0  0  0
    0.4180   14.9150   -3.1150 C   0  0  0  0  0  0  0  0  0  0  0  0
    0.2220   13.8100   -4.1210 C   0  0  2  0  0  0  0  0  0  0  0  0
    1.0080   12.6480   -3.9020 O   0  0  0  0  0  0  0  0  0  0  0  0
  2  1  1  1
  2  3  1  0
  2  4  1  0
  4  5  1  6
  3  6  1  0
  4  7  1  0
  6  7  1  0
  6  8  1  6
  7  9  1  1
  5 10  1  0
 10 11  1  0
 11 12  1  0
 12 13  1  0
 13 14  1  0
 14 15  1  0
 16 15  1  6
 16 17  1  0
 16 18  1  0
 18 19  1  6
 17 20  1  0
 18 21  1  0
 20 21  1  0
 21 22  1  1
M  END
>  <%Rank>  (607) 
46.259542

>  <N_hits>  (607) 
2

>  <submitter_name>  (607) 
nan

>  <original SMILES>  (607) 
nan

>  <∆G_unbound>  (607) 
1.563226

>  <∆G_bound>  (607) 
-7.56625

>  <regarded>  (607) 
5CMS_0_Q_α,mArh-5cms_N_13_N_γ

>  <ref_pdb>  (607) 
nan

>  <smiles>  (607) 
CC1OC(O)C(O)C1OCCCCCCC1OCC(O)C1O

>  <submitter_email>  (607) 
nan

>  <disregarded>  (607) 


>  <LE>  (607) 
-0.414976

>  <submitter_institution>  (607) 
nan

>  <ref_mols>  (607) 
5CMS_0_Q,mArh-5cms_N_13_N

>  <N_constrained_atoms>  (607) 
17.0

>  <ref_url>  (607) 
nan

>  <method>  (607) 
nan

>  <comRMSD>  (607) 
0.635692

>  <N_unconstrained_atoms>  (607) 
5.0

>  <∆∆G>  (607) 
-9.129476

>  <runtime>  (607) 
39.332893

>  <generation_date>  (607) 
nan

$$$$
5CB5_0_R_γ-mArh-x0864_0_A_α
     RDKit          3D

 19 20  0  0  0  0  0  0  0  0999 V2000
   -2.0800   13.1040   -4.3850 O   0  0  0  0  0  0  0  0  0  0  0  0
   -1.2810   14.2640   -4.6380 C   0  0  1  0  0  0  0  0  0  0  0  0
   -1.6130   15.3940   -3.6900 C   0  0  0  0  0  0  0  0  0  0  0  0
    0.0940   14.0410   -4.1370 C   0  0  1  0  0  0  0  0  0  0  0  0
    0.7390   12.7740   -4.4180 N   0  0  0  0  0  0  0  0  0  0  0  0
   -0.3560   16.0460   -3.3470 O   0  0  0  0  0  0  0  0  0  0  0  0
    0.6570   15.4690   -4.1470 C   0  0  2  0  0  0  0  0  0  0  0  0
    0.7860   16.3680   -5.3570 C   0  0  0  0  0  0  0  0  0  0  0  0
    1.1720   12.1340   -3.2880 C   0  0  0  0  0  0  0  0  0  0  0  0
   -0.0210   11.9490   -5.3200 N   0  0  0  0  0  0  0  0  0  0  0  0
    0.6310   10.9170   -3.0620 O   0  0  0  0  0  0  0  0  0  0  0  0
    1.9530   12.5720   -2.4700 O   0  0  0  0  0  0  0  0  0  0  0  0
   -1.0220   11.1760   -4.7640 C   0  0  0  0  0  0  0  0  0  0  0  0
    0.6740   11.5300   -6.4540 C   0  0  0  0  0  0  0  0  0  0  0  0
    1.7820   11.9570   -6.7420 O   0  0  0  0  0  0  0  0  0  0  0  0
   -1.7150   10.3010   -5.5000 C   0  0  0  0  0  0  0  0  0  0  0  0
    0.0120   10.4810   -7.3360 C   0  0  0  0  0  0  0  0  0  0  0  0
   -1.4230   10.1420   -6.9520 C   0  0  1  0  0  0  0  0  0  0  0  0
   -1.8040    8.2920   -7.4640 Br  0  0  0  0  0  0  0  0  0  0  0  0
  2  1  1  1
  2  3  1  0
  2  4  1  0
  4  5  1  6
  3  6  1  0
  4  7  1  0
  6  7  1  0
  7  8  1  6
  5  9  1  0
  5 10  1  0
  9 11  1  0
  9 12  2  0
 10 13  1  0
 10 14  1  0
 14 15  2  0
 13 16  2  0
 14 17  1  0
 16 18  1  0
 17 18  1  0
 18 19  1  1
M  END
>  <%Rank>  (608) 
46.335878

>  <N_hits>  (608) 
2

>  <submitter_name>  (608) 
nan

>  <original SMILES>  (608) 
nan

>  <∆G_unbound>  (608) 
1.874224

>  <∆G_bound>  (608) 
-0.08814

>  <regarded>  (608) 
5CB5_0_R_γ,mArh-x0864_0_A_α

>  <ref_pdb>  (608) 
nan

>  <smiles>  (608) 
CC1OCC(O)C1N(C(=O)O)N1C=CC(Br)CC1=O

>  <submitter_email>  (608) 
nan

>  <disregarded>  (608) 


>  <LE>  (608) 
-0.103282

>  <submitter_institution>  (608) 
nan

>  <ref_mols>  (608) 
5CB5_0_R,mArh-x0864_0_A

>  <N_constrained_atoms>  (608) 
19.0

>  <ref_url>  (608) 
nan

>  <method>  (608) 
nan

>  <comRMSD>  (608) 
0.669186

>  <N_unconstrained_atoms>  (608) 
0.0

>  <∆∆G>  (608) 
-1.962364

>  <runtime>  (608) 
32.01087

>  <generation_date>  (608) 
nan

$$$$
5CB5_0_L_δ-5CB5_0_L_β
     RDKit          3D

 21 22  0  0  0  0  0  0  0  0999 V2000
   -3.6220   15.8390    1.3600 N   0  0  0  0  0  0  0  0  0  0  0  0
   -2.6120   14.9220    0.9030 C   0  0  1  0  0  0  0  0  0  0  0  0
   -2.5740   14.7680   -0.5980 C   0  0  2  0  0  0  0  0  0  0  0  0
   -1.3220   15.4400    1.2730 N   0  0  0  0  0  0  0  0  0  0  0  0
   -1.1160   14.6140   -0.9780 C   0  0  2  0  0  0  0  0  0  0  0  0
   -2.8800   15.8300   -1.4810 N   0  0  0  0  0  0  0  0  0  0  0  0
   -0.2690   14.4910    1.0900 C   0  0  0  0  0  0  0  0  0  0  0  0
   -1.4050   14.2890   -2.3020 N   0  0  0  0  0  0  0  0  0  0  0  0
   -1.9990   15.5430   -2.6520 C   0  0  2  0  0  0  0  0  0  0  0  0
   -0.5140   13.6850   -0.1050 N   0  0  0  0  0  0  0  0  0  0  0  0
   -0.6940   16.3180   -2.7750 C   0  0  0  0  0  0  0  0  0  0  0  0
   -0.6280   17.3450   -3.9040 C   0  0  0  0  0  0  0  0  0  0  0  0
   -1.7910   17.9180   -4.3270 O   0  0  0  0  0  0  0  0  0  0  0  0
   -1.8650   18.4080   -5.8620 P   0  0  0  0  0  0  0  0  0  0  0  0
   -1.0970   19.7330   -6.4540 O   0  0  0  0  0  0  0  0  0  0  0  0
   -0.7230   17.5090   -6.3170 O   0  0  0  0  0  0  0  0  0  0  0  0
   -2.8540   17.5730   -6.8930 O   0  0  0  0  0  0  0  0  0  0  0  0
   -0.4070   19.4100   -7.7300 P   0  0  0  0  0  0  0  0  0  0  0  0
   -1.4930   20.3210   -8.5900 O   0  0  0  0  0  0  0  0  0  0  0  0
    0.9620   20.2060   -7.3300 O   0  0  0  0  0  0  0  0  0  0  0  0
    0.2630   18.8630   -8.9500 O   0  0  0  0  0  0  0  0  0  0  0  0
  2  1  1  6
  2  3  1  0
  2  4  1  0
  3  5  1  0
  3  6  1  6
  4  7  1  0
  5  8  1  6
  6  9  1  0
  8  9  1  0
  5 10  1  0
  7 10  1  0
  9 11  1  1
 11 12  1  0
 12 13  1  0
 13 14  1  0
 14 15  1  0
 14 16  1  0
 14 17  1  0
 15 18  1  0
 18 19  1  0
 18 20  1  0
 18 21  1  0
M  CHG  2  17  -1  20  -1
M  END
>  <%Rank>  (609) 
46.412214

>  <N_hits>  (609) 
2

>  <submitter_name>  (609) 
nan

>  <original SMILES>  (609) 
nan

>  <∆G_unbound>  (609) 
2.344748

>  <∆G_bound>  (609) 
-6.264634

>  <regarded>  (609) 
5CB5_0_L_δ,5CB5_0_L_β

>  <ref_pdb>  (609) 
nan

>  <smiles>  (609) 
NC1NCNC2NC(CCO[PH]([O-])(O)O[PH]([O-])(O)O)NC12

>  <submitter_email>  (609) 
nan

>  <disregarded>  (609) 


>  <LE>  (609) 
-0.409971

>  <submitter_institution>  (609) 
nan

>  <ref_mols>  (609) 
5CB5_0_L,5CB5_0_L

>  <N_constrained_atoms>  (609) 
19.0

>  <ref_url>  (609) 
nan

>  <method>  (609) 
nan

>  <comRMSD>  (609) 
0.770503

>  <N_unconstrained_atoms>  (609) 
2.0

>  <∆∆G>  (609) 
-8.609382

>  <runtime>  (609) 
31.209693

>  <generation_date>  (609) 
nan

$$$$
mArh-5cb5_I_0_I_β-mArh-5cb5_D_0_D_β
     RDKit          3D

  9  8  0  0  0  0  0  0  0  0999 V2000
   -1.2740   20.7780   -8.8290 O   0  0  0  0  0  0  0  0  0  0  0  0
   -0.3340   19.9410   -7.8610 P   0  0  0  0  0  0  0  0  0  0  0  0
   -1.2830   19.6050   -6.6680 O   0  0  0  0  0  0  0  0  0  0  0  0
    0.9570   20.6030   -7.5760 O   0  0  0  0  0  0  0  0  0  0  0  0
   -0.1530   18.5970   -8.7190 O   0  0  0  0  0  0  0  0  0  0  0  0
   -1.6050   18.1590   -6.1510 P   0  0  0  0  0  0  0  0  0  0  0  0
   -0.2090   17.4030   -6.1860 O   0  0  0  0  0  0  0  0  0  0  0  0
   -2.6690   17.4830   -6.9090 O   0  0  0  0  0  0  0  0  0  0  0  0
   -1.8620   18.3020   -4.5990 O   0  0  0  0  0  0  0  0  0  0  0  0
  1  2  1  0
  2  3  1  0
  2  4  2  0
  2  5  1  0
  3  6  1  0
  6  7  1  0
  6  8  2  0
  6  9  1  0
M  END
>  <%Rank>  (610) 
46.48855

>  <N_hits>  (610) 
2

>  <submitter_name>  (610) 
nan

>  <original SMILES>  (610) 
nan

>  <∆G_unbound>  (610) 
0.687887

>  <∆G_bound>  (610) 
-7.070116

>  <regarded>  (610) 
mArh-5cb5_I_0_I_β,mArh-5cb5_D_0_D_β

>  <ref_pdb>  (610) 
nan

>  <smiles>  (610) 
O=P(O)(O)OP(=O)(O)O

>  <submitter_email>  (610) 
nan

>  <disregarded>  (610) 


>  <LE>  (610) 
-0.862

>  <submitter_institution>  (610) 
nan

>  <ref_mols>  (610) 
mArh-5cb5_I_0_I,mArh-5cb5_D_0_D

>  <N_constrained_atoms>  (610) 
9.0

>  <ref_url>  (610) 
nan

>  <method>  (610) 
nan

>  <comRMSD>  (610) 
0.783905

>  <N_unconstrained_atoms>  (610) 
0.0

>  <∆∆G>  (610) 
-7.758003

>  <runtime>  (610) 
25.299908

>  <generation_date>  (610) 
nan

$$$$
5CB5_0_J_δ-5CB5_0_I_β
     RDKit          3D

 21 22  0  0  0  0  0  0  0  0999 V2000
   -3.8520   15.8180    1.3760 N   0  0  0  0  0  0  0  0  0  0  0  0
   -2.7520   14.9200    1.1370 C   0  0  1  0  0  0  0  0  0  0  0  0
   -2.7510   14.3070   -0.2420 C   0  0  2  0  0  0  0  0  0  0  0  0
   -1.5210   15.6720    1.1970 N   0  0  0  0  0  0  0  0  0  0  0  0
   -1.3740   14.6180   -0.8420 C   0  0  2  0  0  0  0  0  0  0  0  0
   -3.6190   14.8070   -1.2480 N   0  0  0  0  0  0  0  0  0  0  0  0
   -0.3600   14.8350    1.1680 C   0  0  0  0  0  0  0  0  0  0  0  0
   -1.6110   14.0410   -2.0870 N   0  0  0  0  0  0  0  0  0  0  0  0
   -2.7830   14.7580   -2.4590 C   0  0  2  0  0  0  0  0  0  0  0  0
   -0.3800   14.0150   -0.0290 N   0  0  0  0  0  0  0  0  0  0  0  0
   -2.1860   16.0740   -2.7520 C   0  0  0  0  0  0  0  0  0  0  0  0
   -2.3360   16.4810   -4.1980 C   0  0  0  0  0  0  0  0  0  0  0  0
   -2.0370   17.8040   -4.3990 O   0  0  0  0  0  0  0  0  0  0  0  0
   -1.9470   18.2650   -5.9330 P   0  0  0  0  0  0  0  0  0  0  0  0
   -1.2660   19.6400   -6.5020 O   0  0  0  0  0  0  0  0  0  0  0  0
   -0.6610   17.4980   -6.2160 O   0  0  0  0  0  0  0  0  0  0  0  0
   -2.7520   17.3080   -7.0050 O   0  0  0  0  0  0  0  0  0  0  0  0
   -0.5230   19.3440   -7.7560 P   0  0  0  0  0  0  0  0  0  0  0  0
   -1.2540   20.6020   -8.5630 O   0  0  0  0  0  0  0  0  0  0  0  0
    0.9220   19.6500   -7.0560 O   0  0  0  0  0  0  0  0  0  0  0  0
    0.2080   18.8410   -8.9620 O   0  0  0  0  0  0  0  0  0  0  0  0
  2  1  1  6
  2  3  1  0
  2  4  1  0
  3  5  1  0
  3  6  1  6
  4  7  1  0
  5  8  1  6
  6  9  1  0
  8  9  1  0
  5 10  1  0
  7 10  1  0
  9 11  1  1
 11 12  1  0
 12 13  1  0
 13 14  1  0
 14 15  1  0
 14 16  1  0
 14 17  1  0
 15 18  1  0
 18 19  1  0
 18 20  1  0
 18 21  1  0
M  CHG  2  17  -1  20  -1
M  END
>  <%Rank>  (611) 
46.564885

>  <N_hits>  (611) 
2

>  <submitter_name>  (611) 
nan

>  <original SMILES>  (611) 
nan

>  <∆G_unbound>  (611) 
2.344748

>  <∆G_bound>  (611) 
-6.139554

>  <regarded>  (611) 
5CB5_0_J_δ,5CB5_0_I_β

>  <ref_pdb>  (611) 
nan

>  <smiles>  (611) 
NC1NCNC2NC(CCO[PH]([O-])(O)O[PH]([O-])(O)O)NC12

>  <submitter_email>  (611) 
nan

>  <disregarded>  (611) 


>  <LE>  (611) 
-0.404014

>  <submitter_institution>  (611) 
nan

>  <ref_mols>  (611) 
5CB5_0_J,5CB5_0_I

>  <N_constrained_atoms>  (611) 
19.0

>  <ref_url>  (611) 
nan

>  <method>  (611) 
nan

>  <comRMSD>  (611) 
0.767593

>  <N_unconstrained_atoms>  (611) 
2.0

>  <∆∆G>  (611) 
-8.484302

>  <runtime>  (611) 
35.981646

>  <generation_date>  (611) 
nan

$$$$
5CB5_0_N_β-5CMS_0_Q_α
     RDKit          3D

 17 17  0  0  0  0  0  0  0  0999 V2000
   -1.7170   20.5340   -8.9100 O   0  0  0  0  0  0  0  0  0  0  0  0
   -0.5320   20.0530   -7.7800 P   0  0  0  0  0  0  0  0  0  0  0  0
   -0.7100   19.0690   -6.4930 O   0  0  0  0  0  0  0  0  0  0  0  0
   -1.7050   21.8840   -9.1140 N   0  0  0  0  0  0  0  0  0  0  0  0
    0.8950   20.8740   -7.8800 O   0  0  0  0  0  0  0  0  0  0  0  0
   -0.0800   18.8960   -8.6860 O   0  0  0  0  0  0  0  0  0  0  0  0
   -0.3400   22.4270   -9.0720 C   0  0  0  0  0  0  0  0  0  0  0  0
   -2.1470   22.2450  -10.4990 C   0  0  1  0  0  0  0  0  0  0  0  0
   -1.8600   18.2860   -5.9020 P   0  0  0  0  0  0  0  0  0  0  0  0
   -3.5370   22.1510  -10.6380 O   0  0  0  0  0  0  0  0  0  0  0  0
   -1.7450   23.6930  -10.4630 C   0  0  1  0  0  0  0  0  0  0  0  0
   -0.3240   23.6800   -9.9390 C   0  0  2  0  0  0  0  0  0  0  0  0
   -0.9230   17.0570   -5.3570 O   0  0  0  0  0  0  0  0  0  0  0  0
   -2.6410   18.1810   -7.3020 O   0  0  0  0  0  0  0  0  0  0  0  0
   -2.2570   19.4840   -4.8510 O   0  0  0  0  0  0  0  0  0  0  0  0
    0.6240   23.5830  -10.9610 O   0  0  0  0  0  0  0  0  0  0  0  0
   -1.8510   24.3340  -11.6870 O   0  0  0  0  0  0  0  0  0  0  0  0
  1  2  1  0
  2  3  1  0
  1  4  1  0
  2  5  1  0
  2  6  1  0
  4  7  1  0
  4  8  1  0
  3  9  1  0
  8 10  1  1
  8 11  1  0
  7 12  1  0
 11 12  1  0
  9 13  1  0
  9 14  1  0
  9 15  1  0
 12 16  1  6
 11 17  1  6
M  CHG  2   5  -1  14  -1
M  END
>  <%Rank>  (612) 
46.641221

>  <N_hits>  (612) 
2

>  <submitter_name>  (612) 
nan

>  <original SMILES>  (612) 
nan

>  <∆G_unbound>  (612) 
2.25323

>  <∆G_bound>  (612) 
-5.005067

>  <regarded>  (612) 
5CB5_0_N_β,5CMS_0_Q_α

>  <ref_pdb>  (612) 
nan

>  <smiles>  (612) 
[O-][PH](O)(O)O[PH]([O-])(O)ON1CC(O)C(O)C1O

>  <submitter_email>  (612) 
nan

>  <disregarded>  (612) 


>  <LE>  (612) 
-0.426959

>  <submitter_institution>  (612) 
nan

>  <ref_mols>  (612) 
5CB5_0_N,5CMS_0_Q

>  <N_constrained_atoms>  (612) 
17.0

>  <ref_url>  (612) 
nan

>  <method>  (612) 
nan

>  <comRMSD>  (612) 
0.790209

>  <N_unconstrained_atoms>  (612) 
0.0

>  <∆∆G>  (612) 
-7.258297

>  <runtime>  (612) 
26.852248

>  <generation_date>  (612) 
nan

$$$$
5CB5_0_M_β-mArh-6woj_A_0_A_α
     RDKit          3D

 17 17  0  0  0  0  0  0  0  0999 V2000
   -1.8140   21.3040   -8.8310 O   0  0  0  0  0  0  0  0  0  0  0  0
   -0.6920   20.3520   -7.9640 P   0  0  0  0  0  0  0  0  0  0  0  0
   -1.1340   19.8050   -6.4980 O   0  0  0  0  0  0  0  0  0  0  0  0
   -3.1050   21.6670   -8.3180 C   0  0  1  0  0  0  0  0  0  0  0  0
   -1.1160   19.0250   -8.5630 O   0  0  0  0  0  0  0  0  0  0  0  0
   -0.0960   21.6470   -7.4370 O   0  0  0  0  0  0  0  0  0  0  0  0
   -3.4890   21.1080   -7.1340 O   0  0  0  0  0  0  0  0  0  0  0  0
   -3.2600   23.2100   -7.9940 C   0  0  1  0  0  0  0  0  0  0  0  0
   -1.4440   18.3710   -6.0370 P   0  0  0  0  0  0  0  0  0  0  0  0
   -4.0500   23.7810   -8.9900 O   0  0  0  0  0  0  0  0  0  0  0  0
   -4.5920   21.8120   -6.7310 C   0  0  2  0  0  0  0  0  0  0  0  0
   -4.1010   23.2120   -6.6820 C   0  0  2  0  0  0  0  0  0  0  0  0
   -1.6090   16.9180   -5.5700 O   0  0  0  0  0  0  0  0  0  0  0  0
   -2.6410   18.2060   -7.1290 O   0  0  0  0  0  0  0  0  0  0  0  0
   -1.8490   18.9820   -4.5750 O   0  0  0  0  0  0  0  0  0  0  0  0
   -5.1940   21.4380   -5.5410 O   0  0  0  0  0  0  0  0  0  0  0  0
   -5.1620   24.1360   -6.7920 O   0  0  0  0  0  0  0  0  0  0  0  0
  1  2  1  0
  2  3  1  0
  4  1  1  1
  2  5  1  0
  2  6  1  0
  4  7  1  0
  4  8  1  0
  3  9  1  0
  8 10  1  6
  7 11  1  0
  8 12  1  0
 11 12  1  0
  9 13  1  0
  9 14  1  0
  9 15  1  0
 11 16  1  1
 12 17  1  6
M  CHG  2   5  -1  14  -1
M  END
>  <%Rank>  (613) 
46.717557

>  <N_hits>  (613) 
2

>  <submitter_name>  (613) 
nan

>  <original SMILES>  (613) 
nan

>  <∆G_unbound>  (613) 
0.972863

>  <∆G_bound>  (613) 
-7.146945

>  <regarded>  (613) 
5CB5_0_M_β,mArh-6woj_A_0_A_α

>  <ref_pdb>  (613) 
nan

>  <smiles>  (613) 
[O-][PH](O)(O)O[PH]([O-])(O)OC1OC(O)C(O)C1O

>  <submitter_email>  (613) 
nan

>  <disregarded>  (613) 


>  <LE>  (613) 
-0.477636

>  <submitter_institution>  (613) 
nan

>  <ref_mols>  (613) 
5CB5_0_M,mArh-6woj_A_0_A

>  <N_constrained_atoms>  (613) 
17.0

>  <ref_url>  (613) 
nan

>  <method>  (613) 
nan

>  <comRMSD>  (613) 
0.817356

>  <N_unconstrained_atoms>  (613) 
0.0

>  <∆∆G>  (613) 
-8.119809

>  <runtime>  (613) 
30.314039

>  <generation_date>  (613) 
nan

$$$$
5CMS_0_F_β-mArh-5cb5_L_0_L_β
     RDKit          3D

  9  8  0  0  0  0  0  0  0  0999 V2000
   -1.9690   20.7930   -8.4150 O   0  0  0  0  0  0  0  0  0  0  0  0
   -0.5130   20.1610   -8.1380 P   0  0  0  0  0  0  0  0  0  0  0  0
   -0.6690   19.6640   -6.7310 O   0  0  0  0  0  0  0  0  0  0  0  0
    0.7360   21.1350   -7.6990 O   0  0  0  0  0  0  0  0  0  0  0  0
   -0.1560   18.6060   -8.6710 O   0  0  0  0  0  0  0  0  0  0  0  0
   -1.6520   18.5050   -6.1240 P   0  0  0  0  0  0  0  0  0  0  0  0
   -0.5550   17.4580   -6.2510 O   0  0  0  0  0  0  0  0  0  0  0  0
   -2.6810   17.6200   -7.0060 O   0  0  0  0  0  0  0  0  0  0  0  0
   -1.7560   18.3540   -4.4970 O   0  0  0  0  0  0  0  0  0  0  0  0
  1  2  1  0
  2  3  1  0
  2  4  1  0
  2  5  1  0
  3  6  1  0
  6  7  1  0
  6  8  1  0
  6  9  1  0
M  CHG  2   4  -1   8  -1
M  END
>  <%Rank>  (614) 
46.793893

>  <N_hits>  (614) 
2

>  <submitter_name>  (614) 
nan

>  <original SMILES>  (614) 
nan

>  <∆G_unbound>  (614) 
0.654534

>  <∆G_bound>  (614) 
-5.451625

>  <regarded>  (614) 
5CMS_0_F_β,mArh-5cb5_L_0_L_β

>  <ref_pdb>  (614) 
nan

>  <smiles>  (614) 
[O-][PH](O)(O)O[PH]([O-])(O)O

>  <submitter_email>  (614) 
nan

>  <disregarded>  (614) 


>  <LE>  (614) 
-0.678462

>  <submitter_institution>  (614) 
nan

>  <ref_mols>  (614) 
5CMS_0_F,mArh-5cb5_L_0_L

>  <N_constrained_atoms>  (614) 
9.0

>  <ref_url>  (614) 
nan

>  <method>  (614) 
nan

>  <comRMSD>  (614) 
0.69412

>  <N_unconstrained_atoms>  (614) 
0.0

>  <∆∆G>  (614) 
-6.106158

>  <runtime>  (614) 
24.366511

>  <generation_date>  (614) 
nan

$$$$
mArh-5cms_C_2_C_β-mArh-x0742_0_A_α
     RDKit          3D

 28 30  0  0  0  0  0  0  0  0999 V2000
   -1.6330   20.5670   -8.3790 O   0  0  0  0  0  0  0  0  0  0  0  0
   -0.4240   19.8140   -7.6760 P   0  0  0  0  0  0  0  0  0  0  0  0
   -1.0460   19.3720   -6.2750 O   0  0  0  0  0  0  0  0  0  0  0  0
    0.7950   20.6550   -7.6110 O   0  0  0  0  0  0  0  0  0  0  0  0
   -0.3060   18.5550   -8.6510 O   0  0  0  0  0  0  0  0  0  0  0  0
   -1.6320   17.9170   -6.0840 P   0  0  2  0  0  0  0  0  0  0  0  0
   -0.2870   17.0850   -6.1990 O   0  0  0  0  0  0  0  0  0  0  0  0
   -2.6850   17.5390   -7.0240 O   0  0  0  0  0  0  0  0  0  0  0  0
   -1.9650   17.4740   -4.6100 O   0  0  0  0  0  0  0  0  0  0  0  0
   -1.3360   16.1840   -4.3980 C   0  0  0  0  0  0  0  0  0  0  0  0
   -2.1160   15.2040   -3.5140 C   0  0  0  0  0  0  0  0  0  0  0  0
   -3.6140   15.4560   -3.4340 C   0  0  0  0  0  0  0  0  0  0  0  0
   -4.4310   14.9410   -2.2320 C   0  0  1  0  0  0  0  0  0  0  0  0
   -3.7760   14.0550   -1.1690 C   0  0  2  0  0  0  0  0  0  0  0  0
   -5.3650   15.8190   -1.4160 C   0  0  0  0  0  0  0  0  0  0  0  0
   -4.9870   13.6940   -0.2500 C   0  0  1  0  0  0  0  0  0  0  0  0
   -5.9500   14.8860   -0.3710 C   0  0  0  0  0  0  0  0  0  0  0  0
   -2.4580   14.3410   -0.4460 C   0  0  0  0  0  0  0  0  0  0  0  0
   -5.7630   12.4450   -0.6990 C   0  0  0  0  0  0  0  0  0  0  0  0
   -4.6000   13.5000    1.2260 C   0  0  0  0  0  0  0  0  0  0  0  0
   -1.2170   14.3620   -1.1060 C   0  0  0  0  0  0  0  0  0  0  0  0
   -2.4250   14.5740    0.9210 C   0  0  0  0  0  0  0  0  0  0  0  0
   -5.8440   12.1190   -1.8850 O   0  0  0  0  0  0  0  0  0  0  0  0
   -6.4510   11.6030    0.3450 C   0  0  0  0  0  0  0  0  0  0  0  0
   -1.3090   14.8000    1.6310 N   0  0  0  0  0  0  0  0  0  0  0  0
   -0.0470   14.6000   -0.3890 C   0  0  0  0  0  0  0  0  0  0  0  0
   -3.6670   14.5860    1.7120 C   0  0  0  0  0  0  0  0  0  0  0  0
   -0.1570   14.8090    0.9660 C   0  0  0  0  0  0  0  0  0  0  0  0
  1  2  1  0
  2  3  1  0
  2  4  2  0
  2  5  1  0
  3  6  1  0
  6  7  1  6
  6  8  2  0
  6  9  1  0
  9 10  1  0
 10 11  1  0
 11 12  1  0
 13 12  1  1
 13 14  1  0
 13 15  1  0
 14 16  1  0
 15 17  1  0
 16 17  1  0
 14 18  1  1
 16 19  1  6
 16 20  1  0
 18 21  1  0
 18 22  2  0
 19 23  2  0
 19 24  1  0
 22 25  1  0
 21 26  2  0
 20 27  1  0
 22 27  1  0
 25 28  2  0
 26 28  1  0
M  END
>  <%Rank>  (615) 
46.870229

>  <N_hits>  (615) 
2

>  <submitter_name>  (615) 
nan

>  <original SMILES>  (615) 
nan

>  <∆G_unbound>  (615) 
0.09454

>  <∆G_bound>  (615) 
-15.125619

>  <regarded>  (615) 
mArh-5cms_C_2_C_β,mArh-x0742_0_A_α

>  <ref_pdb>  (615) 
nan

>  <smiles>  (615) 
CC(=O)C12CCc3ncccc3C1C(CCCOP(=O)(O)OP(=O)(O)O)CC2

>  <submitter_email>  (615) 
nan

>  <disregarded>  (615) 


>  <LE>  (615) 
-0.543577

>  <submitter_institution>  (615) 
nan

>  <ref_mols>  (615) 
mArh-5cms_C_2_C,mArh-x0742_0_A

>  <N_constrained_atoms>  (615) 
20.0

>  <ref_url>  (615) 
nan

>  <method>  (615) 
nan

>  <comRMSD>  (615) 
0.71322

>  <N_unconstrained_atoms>  (615) 
8.0

>  <∆∆G>  (615) 
-15.220159

>  <runtime>  (615) 
42.684417

>  <generation_date>  (615) 
nan

$$$$
mArh-5cb5_K_0_K_β-5CMS_0_N_β
     RDKit          3D

  9  8  0  0  0  0  0  0  0  0999 V2000
   -1.6610   20.4290   -8.2440 O   0  0  0  0  0  0  0  0  0  0  0  0
   -0.1950   19.9510   -7.8470 P   0  0  0  0  0  0  0  0  0  0  0  0
   -0.3070   19.2040   -6.4880 O   0  0  0  0  0  0  0  0  0  0  0  0
    0.8090   21.0410   -7.9240 O   0  0  0  0  0  0  0  0  0  0  0  0
    0.0530   18.7640   -8.8900 O   0  0  0  0  0  0  0  0  0  0  0  0
   -1.4560   18.2210   -6.0570 P   0  0  0  0  0  0  0  0  0  0  0  0
   -0.7170   16.8530   -5.7240 O   0  0  0  0  0  0  0  0  0  0  0  0
   -2.5510   18.1020   -7.0430 O   0  0  0  0  0  0  0  0  0  0  0  0
   -1.8630   18.7860   -4.6330 O   0  0  0  0  0  0  0  0  0  0  0  0
  1  2  1  0
  2  3  1  0
  2  4  2  0
  2  5  1  0
  3  6  1  0
  6  7  1  0
  6  8  2  0
  6  9  1  0
M  END
>  <%Rank>  (616) 
46.946565

>  <N_hits>  (616) 
2

>  <submitter_name>  (616) 
nan

>  <original SMILES>  (616) 
nan

>  <∆G_unbound>  (616) 
0.687887

>  <∆G_bound>  (616) 
-7.753316

>  <regarded>  (616) 
mArh-5cb5_K_0_K_β,5CMS_0_N_β

>  <ref_pdb>  (616) 
nan

>  <smiles>  (616) 
O=P(O)(O)OP(=O)(O)O

>  <submitter_email>  (616) 
nan

>  <disregarded>  (616) 


>  <LE>  (616) 
-0.937911

>  <submitter_institution>  (616) 
nan

>  <ref_mols>  (616) 
mArh-5cb5_K_0_K,5CMS_0_N

>  <N_constrained_atoms>  (616) 
9.0

>  <ref_url>  (616) 
nan

>  <method>  (616) 
nan

>  <comRMSD>  (616) 
0.826709

>  <N_unconstrained_atoms>  (616) 
0.0

>  <∆∆G>  (616) 
-8.441203

>  <runtime>  (616) 
25.304197

>  <generation_date>  (616) 
nan

$$$$
mArh-4iqy_A_0_A_β-5CMS_0_R_α
     RDKit          3D

 17 17  0  0  0  0  0  0  0  0999 V2000
   -1.8740   20.8340   -8.4400 O   0  0  0  0  0  0  0  0  0  0  0  0
   -0.5960   19.9810   -7.8310 P   0  0  2  0  0  0  0  0  0  0  0  0
   -1.1380   19.5570   -6.3870 O   0  0  0  0  0  0  0  0  0  0  0  0
   -2.0260   21.3420   -9.8460 N   0  0  0  0  0  0  0  0  0  0  0  0
    0.6940   20.7270   -7.7830 O   0  0  0  0  0  0  0  0  0  0  0  0
   -0.4260   18.6020   -8.6580 O   0  0  0  0  0  0  0  0  0  0  0  0
   -0.9740   22.3240  -10.1550 C   0  0  0  0  0  0  0  0  0  0  0  0
   -3.2710   22.1360   -9.8720 C   0  0  1  0  0  0  0  0  0  0  0  0
   -1.5950   18.1050   -5.9390 P   0  0  0  0  0  0  0  0  0  0  0  0
   -4.0890   21.8670   -8.7470 O   0  0  0  0  0  0  0  0  0  0  0  0
   -2.9500   23.6250   -9.9160 C   0  0  1  0  0  0  0  0  0  0  0  0
   -1.4310   23.7260   -9.8550 C   0  0  2  0  0  0  0  0  0  0  0  0
   -0.3380   17.1710   -6.1820 O   0  0  0  0  0  0  0  0  0  0  0  0
   -2.1580   17.9350   -4.5980 O   0  0  0  0  0  0  0  0  0  0  0  0
   -2.6290   17.5770   -7.0200 O   0  0  0  0  0  0  0  0  0  0  0  0
   -0.9490   24.5990  -10.8850 O   0  0  0  0  0  0  0  0  0  0  0  0
   -3.4550   24.2370  -11.1100 O   0  0  0  0  0  0  0  0  0  0  0  0
  1  2  1  0
  2  3  1  0
  1  4  1  0
  2  5  2  0
  2  6  1  6
  4  7  1  0
  4  8  1  0
  3  9  1  0
  8 10  1  1
  8 11  1  0
  7 12  1  0
 11 12  1  0
  9 13  1  0
  9 14  2  0
  9 15  1  0
 12 16  1  6
 11 17  1  6
M  END
>  <%Rank>  (617) 
47.022901

>  <N_hits>  (617) 
2

>  <submitter_name>  (617) 
nan

>  <original SMILES>  (617) 
nan

>  <∆G_unbound>  (617) 
1.252921

>  <∆G_bound>  (617) 
-5.952532

>  <regarded>  (617) 
mArh-4iqy_A_0_A_β,5CMS_0_R_α

>  <ref_pdb>  (617) 
nan

>  <smiles>  (617) 
O=P(O)(O)OP(=O)(O)ON1CC(O)C(O)C1O

>  <submitter_email>  (617) 
nan

>  <disregarded>  (617) 


>  <LE>  (617) 
-0.42385

>  <submitter_institution>  (617) 
nan

>  <ref_mols>  (617) 
mArh-4iqy_A_0_A,5CMS_0_R

>  <N_constrained_atoms>  (617) 
17.0

>  <ref_url>  (617) 
nan

>  <method>  (617) 
nan

>  <comRMSD>  (617) 
0.794077

>  <N_unconstrained_atoms>  (617) 
0.0

>  <∆∆G>  (617) 
-7.205454

>  <runtime>  (617) 
26.646118

>  <generation_date>  (617) 
nan

$$$$
5CB5_0_M_β-mArh-5l9k_B_0_B_γ
     RDKit          3D

 16 16  0  0  0  0  0  0  0  0999 V2000
   -1.3500   20.0300   -8.6460 O   0  0  0  0  0  0  0  0  0  0  0  0
   -0.1250   19.6680   -7.6190 P   0  0  0  0  0  0  0  0  0  0  0  0
   -0.2200   18.3390   -6.6150 O   0  0  0  0  0  0  0  0  0  0  0  0
    0.3420   18.7340   -8.7170 O   0  0  0  0  0  0  0  0  0  0  0  0
    1.1170   20.6890   -7.5670 O   0  0  0  0  0  0  0  0  0  0  0  0
   -1.6530   18.2230   -5.9260 P   0  0  0  0  0  0  0  0  0  0  0  0
   -1.6170   16.7110   -5.4390 O   0  0  0  0  0  0  0  0  0  0  0  0
   -2.9520   17.6960   -6.8330 O   0  0  0  0  0  0  0  0  0  0  0  0
   -1.9180   18.8820   -4.4850 O   0  0  0  0  0  0  0  0  0  0  0  0
   -0.6030   15.9020   -4.8860 C   0  0  1  0  0  0  0  0  0  0  0  0
   -0.5910   15.9060   -3.4960 O   0  0  0  0  0  0  0  0  0  0  0  0
   -0.6840   14.4390   -5.1860 C   0  0  1  0  0  0  0  0  0  0  0  0
    0.5610   13.7830   -5.0600 O   0  0  0  0  0  0  0  0  0  0  0  0
   -1.6730   15.0880   -3.1170 C   0  0  0  0  0  0  0  0  0  0  0  0
   -1.5050   13.8740   -4.0190 C   0  0  1  0  0  0  0  0  0  0  0  0
   -2.6930   13.4030   -4.5060 O   0  0  0  0  0  0  0  0  0  0  0  0
  1  2  1  0
  2  3  1  0
  2  4  1  0
  2  5  1  0
  3  6  1  0
  6  7  1  0
  6  8  1  0
  6  9  1  0
 10  7  1  1
 10 11  1  0
 10 12  1  0
 12 13  1  1
 11 14  1  0
 12 15  1  0
 14 15  1  0
 15 16  1  6
M  CHG  2   4  -1   8  -1
M  END
>  <%Rank>  (618) 
47.099237

>  <N_hits>  (618) 
2

>  <submitter_name>  (618) 
nan

>  <original SMILES>  (618) 
nan

>  <∆G_unbound>  (618) 
1.160673

>  <∆G_bound>  (618) 
-6.450555

>  <regarded>  (618) 
5CB5_0_M_β,mArh-5l9k_B_0_B_γ

>  <ref_pdb>  (618) 
nan

>  <smiles>  (618) 
[O-][PH](O)(O)O[PH]([O-])(O)OC1OCC(O)C1O

>  <submitter_email>  (618) 
nan

>  <disregarded>  (618) 


>  <LE>  (618) 
-0.475702

>  <submitter_institution>  (618) 
nan

>  <ref_mols>  (618) 
5CB5_0_M,mArh-5l9k_B_0_B

>  <N_constrained_atoms>  (618) 
16.0

>  <ref_url>  (618) 
nan

>  <method>  (618) 
nan

>  <comRMSD>  (618) 
0.797641

>  <N_unconstrained_atoms>  (618) 
0.0

>  <∆∆G>  (618) 
-7.611229

>  <runtime>  (618) 
28.258907

>  <generation_date>  (618) 
nan

$$$$
mArh-5cb5_G_0_G_α-5CMS_0_K_β
     RDKit          3D

 17 17  0  0  0  0  0  0  0  0999 V2000
   -2.2260   21.1050   -7.5300 C   0  0  0  0  0  0  0  0  0  0  0  0
   -0.7190   20.3280   -8.0570 P   0  0  0  0  0  0  0  0  0  0  0  0
   -0.3820   19.4480   -6.8330 O   0  0  0  0  0  0  0  0  0  0  0  0
   -3.1700   21.7030   -8.6000 C   0  0  1  0  0  0  0  0  0  0  0  0
    0.6990   21.0750   -7.8620 O   0  0  0  0  0  0  0  0  0  0  0  0
   -0.6780   18.8000   -8.8020 O   0  0  0  0  0  0  0  0  0  0  0  0
   -4.4540   21.2030   -8.5160 O   0  0  0  0  0  0  0  0  0  0  0  0
   -3.4650   23.2040   -8.5490 C   0  0  1  0  0  0  0  0  0  0  0  0
   -3.9460   23.6090   -9.7870 O   0  0  0  0  0  0  0  0  0  0  0  0
   -1.4240   18.5690   -5.8920 P   0  0  0  0  0  0  0  0  0  0  0  0
   -5.2270   21.9430   -7.6430 C   0  0  2  0  0  0  0  0  0  0  0  0
   -4.6920   23.3240   -7.6580 C   0  0  2  0  0  0  0  0  0  0  0  0
   -5.2950   21.4980   -6.3190 O   0  0  0  0  0  0  0  0  0  0  0  0
   -5.5740   24.1520   -8.3870 O   0  0  0  0  0  0  0  0  0  0  0  0
   -1.2000   16.9270   -5.5890 O   0  0  0  0  0  0  0  0  0  0  0  0
   -2.3360   18.1760   -7.0560 O   0  0  0  0  0  0  0  0  0  0  0  0
   -2.4960   19.3690   -5.0430 O   0  0  0  0  0  0  0  0  0  0  0  0
  1  2  1  0
  2  3  1  0
  4  1  1  1
  2  5  1  0
  2  6  1  0
  4  7  1  0
  4  8  1  0
  8  9  1  6
  3 10  1  0
  7 11  1  0
  8 12  1  0
 11 12  1  0
 11 13  1  1
 12 14  1  6
 10 15  1  0
 10 16  1  0
 10 17  1  0
M  CHG  2   5  -1  16  -1
M  END
>  <%Rank>  (619) 
47.175573

>  <N_hits>  (619) 
2

>  <submitter_name>  (619) 
nan

>  <original SMILES>  (619) 
nan

>  <∆G_unbound>  (619) 
1.818629

>  <∆G_bound>  (619) 
-7.508043

>  <regarded>  (619) 
mArh-5cb5_G_0_G_α,5CMS_0_K_β

>  <ref_pdb>  (619) 
nan

>  <smiles>  (619) 
[O-][PH](O)(O)O[PH]([O-])(O)CC1OC(O)C(O)C1O

>  <submitter_email>  (619) 
nan

>  <disregarded>  (619) 


>  <LE>  (619) 
-0.548628

>  <submitter_institution>  (619) 
nan

>  <ref_mols>  (619) 
mArh-5cb5_G_0_G,5CMS_0_K

>  <N_constrained_atoms>  (619) 
17.0

>  <ref_url>  (619) 
nan

>  <method>  (619) 
nan

>  <comRMSD>  (619) 
0.85775

>  <N_unconstrained_atoms>  (619) 
0.0

>  <∆∆G>  (619) 
-9.326672

>  <runtime>  (619) 
31.944729

>  <generation_date>  (619) 
nan

$$$$
2FAV_0_B_β-mArh-EU0241_0_A_α
     RDKit          3D

 22 23  0  0  0  0  0  0  0  0999 V2000
   -1.6650   20.4560   -7.5410 O   0  0  0  0  0  0  0  0  0  0  0  0
   -0.1720   19.8910   -7.8230 P   0  0  0  0  0  0  0  0  0  0  0  0
    0.0310   19.2850   -6.4050 O   0  0  0  0  0  0  0  0  0  0  0  0
    1.1510   20.8930   -7.4970 O   0  0  0  0  0  0  0  0  0  0  0  0
    0.0780   18.5410   -8.6690 O   0  0  0  0  0  0  0  0  0  0  0  0
   -0.9440   17.9490   -5.9010 P   0  0  0  0  0  0  0  0  0  0  0  0
   -0.3210   16.9120   -4.8020 O   0  0  0  0  0  0  0  0  0  0  0  0
   -2.3910   17.6970   -6.6020 O   0  0  0  0  0  0  0  0  0  0  0  0
   -1.6700   18.8630   -4.9410 O   0  0  0  0  0  0  0  0  0  0  0  0
    0.6650   15.9790   -5.1620 C   0  0  0  0  0  0  0  0  0  0  0  0
    1.1560   15.1340   -3.9900 C   0  0  0  0  0  0  0  0  0  0  0  0
    0.3440   15.3500   -2.7690 C   0  0  0  0  0  0  0  0  0  0  0  0
    0.3810   14.4330   -1.6320 N   0  0  0  0  0  0  0  0  0  0  0  0
   -0.6630   14.5280   -0.6990 C   0  0  0  0  0  0  0  0  0  0  0  0
   -1.9350   14.6770   -1.1980 C   0  0  0  0  0  0  0  0  0  0  0  0
   -0.5210   14.5130    0.6720 C   0  0  0  0  0  0  0  0  0  0  0  0
   -3.0130   14.8590   -0.3760 C   0  0  0  0  0  0  0  0  0  0  0  0
   -1.5870   14.6350    1.5220 N   0  0  0  0  0  0  0  0  0  0  0  0
   -2.8220   14.8700    1.0740 C   0  0  0  0  0  0  0  0  0  0  0  0
   -4.3470   15.0620   -0.5950 C   0  0  0  0  0  0  0  0  0  0  0  0
   -4.0340   15.1350    1.5770 N   0  0  0  0  0  0  0  0  0  0  0  0
   -4.9320   15.2430    0.5940 N   0  0  0  0  0  0  0  0  0  0  0  0
  1  2  1  0
  2  3  1  0
  2  4  1  0
  2  5  1  0
  3  6  1  0
  6  7  1  0
  6  8  1  0
  6  9  1  0
  7 10  1  0
 10 11  1  0
 11 12  1  0
 12 13  1  0
 13 14  1  0
 14 15  1  0
 14 16  2  0
 15 17  2  0
 16 18  1  0
 17 19  1  0
 18 19  1  0
 17 20  1  0
 19 21  2  0
 20 22  2  0
 21 22  1  0
M  CHG  2   4  -1   8  -1
M  END
>  <%Rank>  (620) 
47.251908

>  <N_hits>  (620) 
2

>  <submitter_name>  (620) 
nan

>  <original SMILES>  (620) 
nan

>  <∆G_unbound>  (620) 
0.709867

>  <∆G_bound>  (620) 
-13.182181

>  <regarded>  (620) 
2FAV_0_B_β,mArh-EU0241_0_A_α

>  <ref_pdb>  (620) 
nan

>  <smiles>  (620) 
[O-][PH](O)(O)O[PH]([O-])(O)OCCCNc1c[nH]c2nncc-2c1

>  <submitter_email>  (620) 
nan

>  <disregarded>  (620) 


>  <LE>  (620) 
-0.631457

>  <submitter_institution>  (620) 
nan

>  <ref_mols>  (620) 
2FAV_0_B,mArh-EU0241_0_A

>  <N_constrained_atoms>  (620) 
19.0

>  <ref_url>  (620) 
nan

>  <method>  (620) 
nan

>  <comRMSD>  (620) 
0.862169

>  <N_unconstrained_atoms>  (620) 
3.0

>  <∆∆G>  (620) 
-13.892048

>  <runtime>  (620) 
31.931996

>  <generation_date>  (620) 
nan

$$$$
mArh-EU0172_0_A_α-5LW0_0_A_γ
     RDKit          3D

 20 21  0  0  0  0  0  0  0  0999 V2000
   -8.0350   14.5620    2.0620 C   0  0  0  0  0  0  0  0  0  0  0  0
   -8.5160   14.4650    3.4460 N   0  0  0  0  0  0  0  0  0  0  0  0
   -6.5370   14.3040    2.0100 C   0  0  0  0  0  0  0  0  0  0  0  0
   -5.8110   14.6110    0.7840 N   0  0  0  0  0  0  0  0  0  0  0  0
   -4.4330   14.7240    0.8700 C   0  0  0  0  0  0  0  0  0  0  0  0
   -6.5100   14.9380   -0.3660 C   0  0  0  0  0  0  0  0  0  0  0  0
   -7.7230   15.0710   -0.4440 O   0  0  0  0  0  0  0  0  0  0  0  0
   -3.7040   14.9700   -0.2000 C   0  0  0  0  0  0  0  0  0  0  0  0
   -5.6810   15.1170   -1.5710 C   0  0  0  0  0  0  0  0  0  0  0  0
   -4.3540   15.1210   -1.4740 C   0  0  0  0  0  0  0  0  0  0  0  0
   -3.4950   15.2530   -2.6580 C   0  0  0  0  0  0  0  0  0  0  0  0
   -2.1500   14.5950   -2.4290 C   0  0  0  0  0  0  0  0  0  0  0  0
   -1.3770   14.5970   -3.7010 C   0  0  1  0  0  0  0  0  0  0  0  0
   -0.3050   15.4850   -3.5730 O   0  0  0  0  0  0  0  0  0  0  0  0
   -0.7670   13.2780   -4.2110 C   0  0  2  0  0  0  0  0  0  0  0  0
   -0.3240   12.4050   -3.1630 O   0  0  0  0  0  0  0  0  0  0  0  0
    0.2160   15.3050   -4.8600 C   0  0  2  0  0  0  0  0  0  0  0  0
    0.4680   13.7960   -4.9480 C   0  0  1  0  0  0  0  0  0  0  0  0
    1.3760   16.1950   -5.0050 C   0  0  0  0  0  0  0  0  0  0  0  0
    1.6630   13.3580   -4.3090 O   0  0  0  0  0  0  0  0  0  0  0  0
  1  2  1  0
  1  3  1  0
  3  4  1  0
  4  5  1  0
  4  6  1  0
  6  7  2  0
  5  8  2  0
  6  9  1  0
  8 10  1  0
  9 10  2  0
 10 11  1  0
 11 12  1  0
 13 12  1  1
 13 14  1  0
 13 15  1  0
 15 16  1  1
 14 17  1  0
 15 18  1  0
 17 18  1  0
 17 19  1  1
 18 20  1  1
M  END
>  <%Rank>  (621) 
47.328244

>  <N_hits>  (621) 
2

>  <submitter_name>  (621) 
nan

>  <original SMILES>  (621) 
nan

>  <∆G_unbound>  (621) 
0.737366

>  <∆G_bound>  (621) 
-5.783659

>  <regarded>  (621) 
mArh-EU0172_0_A_α,5LW0_0_A_γ

>  <ref_pdb>  (621) 
nan

>  <smiles>  (621) 
CC1OC(CCc2ccn(CCN)c(=O)c2)C(O)C1O

>  <submitter_email>  (621) 
nan

>  <disregarded>  (621) 


>  <LE>  (621) 
-0.326051

>  <submitter_institution>  (621) 
nan

>  <ref_mols>  (621) 
mArh-EU0172_0_A,5LW0_0_A

>  <N_constrained_atoms>  (621) 
18.0

>  <ref_url>  (621) 
nan

>  <method>  (621) 
nan

>  <comRMSD>  (621) 
0.714444

>  <N_unconstrained_atoms>  (621) 
2.0

>  <∆∆G>  (621) 
-6.521025

>  <runtime>  (621) 
41.250742

>  <generation_date>  (621) 
nan

$$$$
mArh-5cms_D_3_D_γ-5CMS_0_B_β
     RDKit          3D

 21 22  0  0  0  0  0  0  0  0999 V2000
   -3.8060   16.0200    1.3100 N   0  0  0  0  0  0  0  0  0  0  0  0
   -2.8470   14.9700    1.0790 C   0  0  1  0  0  0  0  0  0  0  0  0
   -2.6760   14.6210   -0.3710 C   0  0  2  0  0  0  0  0  0  0  0  0
   -1.5480   15.4420    1.4760 N   0  0  0  0  0  0  0  0  0  0  0  0
   -1.2680   15.0800   -0.7780 C   0  0  2  0  0  0  0  0  0  0  0  0
   -3.4620   15.2650   -1.3340 N   0  0  0  0  0  0  0  0  0  0  0  0
   -0.4990   14.4990    1.2890 C   0  0  0  0  0  0  0  0  0  0  0  0
   -1.3370   14.8810   -2.1630 N   0  0  0  0  0  0  0  0  0  0  0  0
   -2.7350   14.8510   -2.5260 C   0  0  2  0  0  0  0  0  0  0  0  0
   -0.3370   14.2260   -0.1240 N   0  0  0  0  0  0  0  0  0  0  0  0
   -2.8900   15.7200   -3.7380 C   0  0  0  0  0  0  0  0  0  0  0  0
   -1.6740   16.6230   -3.9080 C   0  0  0  0  0  0  0  0  0  0  0  0
   -1.9730   17.8980   -4.2990 O   0  0  0  0  0  0  0  0  0  0  0  0
   -1.9460   18.2210   -5.8690 P   0  0  0  0  0  0  0  0  0  0  0  0
   -1.2560   19.5620   -6.5090 O   0  0  0  0  0  0  0  0  0  0  0  0
   -0.6990   17.3900   -6.1430 O   0  0  0  0  0  0  0  0  0  0  0  0
   -2.8090   17.2170   -6.8680 O   0  0  0  0  0  0  0  0  0  0  0  0
   -0.5170   19.2600   -7.7600 P   0  0  0  0  0  0  0  0  0  0  0  0
   -1.4650   20.3170   -8.6180 O   0  0  0  0  0  0  0  0  0  0  0  0
    0.8890   19.8740   -7.2050 O   0  0  0  0  0  0  0  0  0  0  0  0
    0.2130   18.7570   -8.9670 O   0  0  0  0  0  0  0  0  0  0  0  0
  2  1  1  6
  2  3  1  0
  2  4  1  0
  3  5  1  0
  3  6  1  6
  4  7  1  0
  5  8  1  6
  6  9  1  0
  8  9  1  0
  5 10  1  0
  7 10  1  0
  9 11  1  6
 11 12  1  0
 12 13  1  0
 13 14  1  0
 14 15  1  0
 14 16  1  0
 14 17  1  0
 15 18  1  0
 18 19  1  0
 18 20  1  0
 18 21  1  0
M  CHG  2  17  -1  20  -1
M  END
>  <%Rank>  (622) 
47.40458

>  <N_hits>  (622) 
2

>  <submitter_name>  (622) 
nan

>  <original SMILES>  (622) 
nan

>  <∆G_unbound>  (622) 
2.344748

>  <∆G_bound>  (622) 
-5.704191

>  <regarded>  (622) 
mArh-5cms_D_3_D_γ,5CMS_0_B_β

>  <ref_pdb>  (622) 
nan

>  <smiles>  (622) 
NC1NCNC2NC(CCO[PH]([O-])(O)O[PH]([O-])(O)O)NC12

>  <submitter_email>  (622) 
nan

>  <disregarded>  (622) 


>  <LE>  (622) 
-0.383283

>  <submitter_institution>  (622) 
nan

>  <ref_mols>  (622) 
mArh-5cms_D_3_D,5CMS_0_B

>  <N_constrained_atoms>  (622) 
19.0

>  <ref_url>  (622) 
nan

>  <method>  (622) 
nan

>  <comRMSD>  (622) 
0.76684

>  <N_unconstrained_atoms>  (622) 
2.0

>  <∆∆G>  (622) 
-8.048939

>  <runtime>  (622) 
30.906663

>  <generation_date>  (622) 
nan

$$$$
mArh-x0438_0_A_α-5CB5_0_Q_α
     RDKit          3D

 28 30  0  0  0  0  0  0  0  0999 V2000
   -7.9930   15.2880    3.5310 C   0  0  0  0  0  0  0  0  0  0  0  0
   -9.2290   15.2140    2.2380 S   0  0  0  0  0  0  0  0  0  0  0  0
  -10.3500   14.4990    2.8140 O   0  0  0  0  0  0  0  0  0  0  0  0
   -8.6600   14.2680    0.8110 C   0  0  0  0  0  0  0  0  0  0  0  0
   -9.4510   16.5710    1.7590 O   0  0  0  0  0  0  0  0  0  0  0  0
   -7.2430   14.4860    0.3730 C   0  0  0  0  0  0  0  0  0  0  0  0
   -6.8000   14.5990   -0.9550 N   0  0  0  0  0  0  0  0  0  0  0  0
   -6.2380   14.5910    1.1860 N   0  0  0  0  0  0  0  0  0  0  0  0
   -5.1220   14.7630    0.4110 C   0  0  0  0  0  0  0  0  0  0  0  0
   -5.4060   14.7780   -0.9710 C   0  0  0  0  0  0  0  0  0  0  0  0
   -4.3460   14.9440   -1.9810 C   0  0  0  0  0  0  0  0  0  0  0  0
   -3.8220   14.9100    0.8730 C   0  0  0  0  0  0  0  0  0  0  0  0
   -4.3260   14.9890   -3.5470 C   0  0  0  0  0  0  0  0  0  0  0  0
   -3.0710   15.0800   -1.4080 C   0  0  0  0  0  0  0  0  0  0  0  0
   -2.8110   15.0650   -0.0470 C   0  0  0  0  0  0  0  0  0  0  0  0
   -3.1110   15.8840   -4.1010 C   0  0  0  0  0  0  0  0  0  0  0  0
   -3.0470   16.5730   -5.5440 C   0  0  0  0  0  0  0  0  0  0  0  0
   -2.3230   18.0350   -5.6900 C   0  0  0  0  0  0  0  0  0  0  0  0
   -2.9270   19.2130   -6.6140 C   0  0  0  0  0  0  0  0  0  0  0  0
   -3.4590   20.4680   -6.0250 O   0  0  0  0  0  0  0  0  0  0  0  0
   -4.4310   21.2330   -6.8660 C   0  0  2  0  0  0  0  0  0  0  0  0
   -4.1810   20.9090   -8.2240 O   0  0  0  0  0  0  0  0  0  0  0  0
   -4.3170   22.8020   -6.8290 C   0  0  2  0  0  0  0  0  0  0  0  0
   -5.5640   23.5020   -6.7090 O   0  0  0  0  0  0  0  0  0  0  0  0
   -3.2390   21.8680   -8.7380 C   0  0  1  0  0  0  0  0  0  0  0  0
   -3.6690   23.2070   -8.1690 C   0  0  1  0  0  0  0  0  0  0  0  0
   -1.8430   21.4760   -8.2780 C   0  0  0  0  0  0  0  0  0  0  0  0
   -4.6560   23.8330   -9.0390 O   0  0  0  0  0  0  0  0  0  0  0  0
  2  1  1  0
  2  3  2  0
  2  4  1  0
  2  5  2  0
  4  6  1  0
  6  7  1  0
  6  8  2  0
  8  9  1  0
  7 10  1  0
  9 10  2  0
 10 11  1  0
  9 12  1  0
 11 13  1  0
 11 14  2  0
 12 15  2  0
 14 15  1  0
 13 16  1  0
 16 17  1  0
 17 18  1  0
 18 19  1  0
 19 20  1  0
 21 20  1  1
 21 22  1  0
 21 23  1  0
 23 24  1  6
 22 25  1  0
 23 26  1  0
 25 26  1  0
 25 27  1  1
 26 28  1  6
M  END
>  <%Rank>  (623) 
47.480916

>  <N_hits>  (623) 
2

>  <submitter_name>  (623) 
nan

>  <original SMILES>  (623) 
nan

>  <∆G_unbound>  (623) 
0.415747

>  <∆G_bound>  (623) 
-7.928747

>  <regarded>  (623) 
mArh-x0438_0_A_α,5CB5_0_Q_α

>  <ref_pdb>  (623) 
nan

>  <smiles>  (623) 
CC1OC(OCCCCCc2cccc3nc(CS(C)(=O)=O)[nH]c23)C(O)C1O

>  <submitter_email>  (623) 
nan

>  <disregarded>  (623) 


>  <LE>  (623) 
-0.298018

>  <submitter_institution>  (623) 
nan

>  <ref_mols>  (623) 
mArh-x0438_0_A,5CB5_0_Q

>  <N_constrained_atoms>  (623) 
23.0

>  <ref_url>  (623) 
nan

>  <method>  (623) 
nan

>  <comRMSD>  (623) 
0.740849

>  <N_unconstrained_atoms>  (623) 
5.0

>  <∆∆G>  (623) 
-8.344494

>  <runtime>  (623) 
47.077389

>  <generation_date>  (623) 
nan

$$$$
mArh-5cms_J_9_J_β-5CMS_0_L_γ
     RDKit          3D

 16 16  0  0  0  0  0  0  0  0999 V2000
    0.0340   21.2350   -7.6820 O   0  0  0  0  0  0  0  0  0  0  0  0
   -0.2670   19.6730   -7.6650 P   0  0  0  0  0  0  0  0  0  0  0  0
   -1.1790   19.4110   -6.4140 O   0  0  0  0  0  0  0  0  0  0  0  0
    0.8960   18.7950   -7.7550 O   0  0  0  0  0  0  0  0  0  0  0  0
   -1.2030   19.5300   -8.9130 O   0  0  0  0  0  0  0  0  0  0  0  0
   -1.5780   17.9180   -6.0730 P   0  0  2  0  0  0  0  0  0  0  0  0
   -0.2590   17.0530   -5.7340 O   0  0  0  0  0  0  0  0  0  0  0  0
   -2.5450   17.3160   -6.9940 O   0  0  0  0  0  0  0  0  0  0  0  0
   -2.2190   18.0420   -4.6420 O   0  0  0  0  0  0  0  0  0  0  0  0
   -0.3950   15.9700   -4.8130 C   0  0  2  0  0  0  0  0  0  0  0  0
    0.5020   16.0770   -3.7030 O   0  0  0  0  0  0  0  0  0  0  0  0
   -0.1780   14.5260   -5.3230 C   0  0  1  0  0  0  0  0  0  0  0  0
    1.1000   14.2550   -5.9180 O   0  0  0  0  0  0  0  0  0  0  0  0
    0.5360   14.7790   -3.0840 C   0  0  0  0  0  0  0  0  0  0  0  0
   -0.1910   13.7930   -4.0050 C   0  0  2  0  0  0  0  0  0  0  0  0
    0.4610   12.5320   -4.0880 O   0  0  0  0  0  0  0  0  0  0  0  0
  1  2  1  0
  2  3  1  0
  2  4  2  0
  2  5  1  0
  3  6  1  0
  6  7  1  0
  6  8  2  0
  6  9  1  1
 10  7  1  6
 10 11  1  0
 10 12  1  0
 12 13  1  1
 11 14  1  0
 12 15  1  0
 14 15  1  0
 15 16  1  6
M  END
>  <%Rank>  (624) 
47.557252

>  <N_hits>  (624) 
2

>  <submitter_name>  (624) 
nan

>  <original SMILES>  (624) 
nan

>  <∆G_unbound>  (624) 
1.157846

>  <∆G_bound>  (624) 
-6.454904

>  <regarded>  (624) 
mArh-5cms_J_9_J_β,5CMS_0_L_γ

>  <ref_pdb>  (624) 
nan

>  <smiles>  (624) 
O=P(O)(O)OP(=O)(O)OC1OCC(O)C1O

>  <submitter_email>  (624) 
nan

>  <disregarded>  (624) 


>  <LE>  (624) 
-0.475797

>  <submitter_institution>  (624) 
nan

>  <ref_mols>  (624) 
mArh-5cms_J_9_J,5CMS_0_L

>  <N_constrained_atoms>  (624) 
16.0

>  <ref_url>  (624) 
nan

>  <method>  (624) 
nan

>  <comRMSD>  (624) 
0.803391

>  <N_unconstrained_atoms>  (624) 
0.0

>  <∆∆G>  (624) 
-7.612749

>  <runtime>  (624) 
32.159661

>  <generation_date>  (624) 
nan

$$$$
1HJZ_0_B_α-5CMS_0_P_α
     RDKit          3D

 20 21  0  0  0  0  0  0  0  0999 V2000
    1.2680   21.0690   -7.6380 O   0  0  0  0  0  0  0  0  0  0  0  0
   -0.1870   20.3850   -7.7250 S   0  0  0  0  0  0  0  0  0  0  0  0
   -0.2560   19.2220   -8.8120 O   0  0  0  0  0  0  0  0  0  0  0  0
   -0.5190   19.7090   -6.3180 O   0  0  0  0  0  0  0  0  0  0  0  0
   -1.3800   21.7430   -7.9350 C   0  0  2  0  0  0  0  0  0  0  0  0
   -2.6420   21.3240   -7.1780 C   0  0  0  0  0  0  0  0  0  0  0  0
   -1.7230   22.4860   -9.2800 C   0  0  2  0  0  0  0  0  0  0  0  0
   -3.8200   22.1630   -7.4460 N   0  0  0  0  0  0  0  0  0  0  0  0
   -2.5070   21.8360  -10.3010 O   0  0  0  0  0  0  0  0  0  0  0  0
   -0.7360   23.3960   -9.9920 C   0  0  1  0  0  0  0  0  0  0  0  0
    0.6150   22.9570  -10.0690 O   0  0  0  0  0  0  0  0  0  0  0  0
   -4.0650   22.4930   -8.8580 C   0  0  0  0  0  0  0  0  0  0  0  0
   -3.8190   23.4020   -6.6680 C   0  0  0  0  0  0  0  0  0  0  0  0
   -2.6740   22.8210  -11.3170 C   0  0  2  0  0  0  0  0  0  0  0  0
   -1.3410   23.5640  -11.3680 C   0  0  1  0  0  0  0  0  0  0  0  0
   -3.7290   23.7230  -10.9820 O   0  0  0  0  0  0  0  0  0  0  0  0
   -1.4130   24.9380  -11.7670 O   0  0  0  0  0  0  0  0  0  0  0  0
   -5.3950   23.2160   -9.0860 C   0  0  0  0  0  0  0  0  0  0  0  0
   -5.1910   24.0060   -6.8530 C   0  0  0  0  0  0  0  0  0  0  0  0
   -5.5200   24.3300   -8.2080 O   0  0  0  0  0  0  0  0  0  0  0  0
  2  1  1  0
  2  3  1  0
  2  4  1  0
  2  5  1  0
  5  6  1  6
  5  7  1  0
  6  8  1  0
  7  9  1  6
  7 10  1  0
 10 11  1  6
  8 12  1  0
  8 13  1  0
  9 14  1  0
 10 15  1  0
 14 15  1  0
 14 16  1  1
 15 17  1  1
 12 18  1  0
 13 19  1  0
 18 20  1  0
 19 20  1  0
M  END
>  <%Rank>  (625) 
47.633588

>  <N_hits>  (625) 
2

>  <submitter_name>  (625) 
nan

>  <original SMILES>  (625) 
nan

>  <∆G_unbound>  (625) 
2.5949

>  <∆G_bound>  (625) 
-3.567709

>  <regarded>  (625) 
1HJZ_0_B_α,5CMS_0_P_α

>  <ref_pdb>  (625) 
nan

>  <smiles>  (625) 
OC1OC(C(CN2CCOCC2)S(O)(O)O)C(O)C1O

>  <submitter_email>  (625) 
nan

>  <disregarded>  (625) 


>  <LE>  (625) 
-0.30813

>  <submitter_institution>  (625) 
nan

>  <ref_mols>  (625) 
1HJZ_0_B,5CMS_0_P

>  <N_constrained_atoms>  (625) 
20.0

>  <ref_url>  (625) 
nan

>  <method>  (625) 
nan

>  <comRMSD>  (625) 
0.803036

>  <N_unconstrained_atoms>  (625) 
0.0

>  <∆∆G>  (625) 
-6.162609

>  <runtime>  (625) 
37.742764

>  <generation_date>  (625) 
nan

$$$$
5CMS_0_P_β-5CB5_0_P_γ
     RDKit          3D

 16 16  0  0  0  0  0  0  0  0999 V2000
   -1.1690   20.9900   -8.2220 O   0  0  0  0  0  0  0  0  0  0  0  0
   -0.5190   19.5360   -7.7900 P   0  0  0  0  0  0  0  0  0  0  0  0
   -0.6190   19.0770   -6.2120 O   0  0  0  0  0  0  0  0  0  0  0  0
    0.7950   20.2230   -7.4490 O   0  0  0  0  0  0  0  0  0  0  0  0
    0.0730   18.5640   -8.9000 O   0  0  0  0  0  0  0  0  0  0  0  0
   -1.7260   17.9740   -5.8480 P   0  0  0  0  0  0  0  0  0  0  0  0
   -0.6760   16.8070   -5.8980 O   0  0  0  0  0  0  0  0  0  0  0  0
   -2.6490   17.1650   -6.9840 O   0  0  0  0  0  0  0  0  0  0  0  0
   -2.1730   17.6690   -4.3800 O   0  0  0  0  0  0  0  0  0  0  0  0
   -0.2770   15.9420   -4.8560 C   0  0  1  0  0  0  0  0  0  0  0  0
   -1.2140   15.8850   -3.8390 O   0  0  0  0  0  0  0  0  0  0  0  0
   -0.0110   14.5130   -5.2120 C   0  0  1  0  0  0  0  0  0  0  0  0
    1.3590   14.1850   -5.2770 O   0  0  0  0  0  0  0  0  0  0  0  0
   -0.7790   14.8650   -2.9880 C   0  0  0  0  0  0  0  0  0  0  0  0
   -0.5130   13.7390   -3.9860 C   0  0  1  0  0  0  0  0  0  0  0  0
   -1.6350   13.0590   -4.3500 O   0  0  0  0  0  0  0  0  0  0  0  0
  1  2  1  0
  2  3  1  0
  2  4  1  0
  2  5  1  0
  3  6  1  0
  6  7  1  0
  6  8  1  0
  6  9  1  0
 10  7  1  6
 10 11  1  0
 10 12  1  0
 12 13  1  1
 11 14  1  0
 12 15  1  0
 14 15  1  0
 15 16  1  6
M  CHG  2   4  -1   8  -1
M  END
>  <%Rank>  (626) 
47.709924

>  <N_hits>  (626) 
2

>  <submitter_name>  (626) 
nan

>  <original SMILES>  (626) 
nan

>  <∆G_unbound>  (626) 
1.160673

>  <∆G_bound>  (626) 
-4.896147

>  <regarded>  (626) 
5CMS_0_P_β,5CB5_0_P_γ

>  <ref_pdb>  (626) 
nan

>  <smiles>  (626) 
[O-][PH](O)(O)O[PH]([O-])(O)OC1OCC(O)C1O

>  <submitter_email>  (626) 
nan

>  <disregarded>  (626) 


>  <LE>  (626) 
-0.378551

>  <submitter_institution>  (626) 
nan

>  <ref_mols>  (626) 
5CMS_0_P,5CB5_0_P

>  <N_constrained_atoms>  (626) 
16.0

>  <ref_url>  (626) 
nan

>  <method>  (626) 
nan

>  <comRMSD>  (626) 
0.757524

>  <N_unconstrained_atoms>  (626) 
0.0

>  <∆∆G>  (626) 
-6.05682

>  <runtime>  (626) 
32.252275

>  <generation_date>  (626) 
nan

$$$$
1SPV_0_A_α-5CB5_0_J_α
     RDKit          3D

 14 14  0  0  0  0  0  0  0  0999 V2000
    1.0650   20.6760   -7.5040 O   0  0  0  0  0  0  0  0  0  0  0  0
   -0.2390   19.7830   -7.7930 S   0  0  0  0  0  0  0  0  0  0  0  0
    0.0660   18.6240   -8.8450 O   0  0  0  0  0  0  0  0  0  0  0  0
   -0.8560   19.1430   -6.4680 O   0  0  0  0  0  0  0  0  0  0  0  0
   -1.4100   20.9360   -8.5010 C   0  0  0  0  0  0  0  0  0  0  0  0
   -2.5700   21.2790   -7.5810 C   0  0  0  0  0  0  0  0  0  0  0  0
   -3.2300   22.5900   -7.8200 N   0  0  0  0  0  0  0  0  0  0  0  0
   -4.0720   22.7010   -9.0670 C   0  0  2  0  0  0  0  0  0  0  0  0
   -4.0360   22.9160   -6.6400 C   0  0  0  0  0  0  0  0  0  0  0  0
   -3.8630   23.9970   -9.5520 O   0  0  0  0  0  0  0  0  0  0  0  0
   -5.6300   22.6370   -8.9920 C   0  0  0  0  0  0  0  0  0  0  0  0
   -5.3380   22.1830   -6.8300 C   0  0  1  0  0  0  0  0  0  0  0  0
   -5.9540   21.7790   -5.6350 O   0  0  0  0  0  0  0  0  0  0  0  0
   -6.1690   22.8880   -7.6970 O   0  0  0  0  0  0  0  0  0  0  0  0
  2  1  1  0
  2  3  1  0
  2  4  1  0
  2  5  1  0
  5  6  1  0
  6  7  1  0
  7  8  1  0
  7  9  1  0
  8 10  1  1
  8 11  1  0
  9 12  1  0
 12 13  1  1
 11 14  1  0
 12 14  1  0
M  END
>  <%Rank>  (627) 
47.78626

>  <N_hits>  (627) 
2

>  <submitter_name>  (627) 
nan

>  <original SMILES>  (627) 
nan

>  <∆G_unbound>  (627) 
0.224393

>  <∆G_bound>  (627) 
-7.684498

>  <regarded>  (627) 
1SPV_0_A_α,5CB5_0_J_α

>  <ref_pdb>  (627) 
nan

>  <smiles>  (627) 
OC1CN(CCS(O)(O)O)C(O)CO1

>  <submitter_email>  (627) 
nan

>  <disregarded>  (627) 


>  <LE>  (627) 
-0.564921

>  <submitter_institution>  (627) 
nan

>  <ref_mols>  (627) 
1SPV_0_A,5CB5_0_J

>  <N_constrained_atoms>  (627) 
14.0

>  <ref_url>  (627) 
nan

>  <method>  (627) 
nan

>  <comRMSD>  (627) 
0.80201

>  <N_unconstrained_atoms>  (627) 
0.0

>  <∆∆G>  (627) 
-7.908891

>  <runtime>  (627) 
27.374639

>  <generation_date>  (627) 
nan

$$$$
mArh-x0805_0_A_α-mArh-x0282_0_A_α
     RDKit          3D

 22 24  0  0  0  0  0  0  0  0999 V2000
   -3.4900   15.7760   -0.8470 O   0  0  0  0  0  0  0  0  0  0  0  0
   -4.8100   15.9610   -0.3410 C   0  0  0  0  0  0  0  0  0  0  0  0
   -5.5260   14.6350   -0.3970 C   0  0  2  0  0  0  0  0  0  0  0  0
   -3.2990   15.0810   -2.0210 C   0  0  0  0  0  0  0  0  0  0  0  0
   -4.4290   14.4520   -2.5360 C   0  0  0  0  0  0  0  0  0  0  0  0
   -2.0920   14.9580   -2.7200 C   0  0  0  0  0  0  0  0  0  0  0  0
   -2.0200   14.2340   -3.9000 C   0  0  0  0  0  0  0  0  0  0  0  0
   -4.3590   13.7240   -3.7190 C   0  0  0  0  0  0  0  0  0  0  0  0
   -6.3780   14.3880    0.8540 C   0  0  1  0  0  0  0  0  0  0  0  0
   -4.4030   13.6270   -0.4540 C   0  0  0  0  0  0  0  0  0  0  0  0
   -7.5450   13.4500    0.5680 C   0  0  0  0  0  0  0  0  0  0  0  0
   -3.1530   13.6180   -4.4040 C   0  0  0  0  0  0  0  0  0  0  0  0
   -5.5060   13.9420    2.0240 C   0  0  0  0  0  0  0  0  0  0  0  0
   -3.5130   14.1240    0.5680 N   0  0  0  0  0  0  0  0  0  0  0  0
   -8.6640   14.2100    0.1200 O   0  0  0  0  0  0  0  0  0  0  0  0
   -4.0180   14.2770    1.8790 C   0  0  0  0  0  0  0  0  0  0  0  0
   -2.1700   14.3450    0.3960 C   0  0  0  0  0  0  0  0  0  0  0  0
   -1.6880   14.4720   -0.8390 N   0  0  0  0  0  0  0  0  0  0  0  0
   -1.3900   14.4230    1.4970 N   0  0  0  0  0  0  0  0  0  0  0  0
   -0.3850   14.6850   -1.0020 C   0  0  0  0  0  0  0  0  0  0  0  0
   -0.0910   14.6350    1.2730 C   0  0  0  0  0  0  0  0  0  0  0  0
    0.4670   14.7800    0.0270 C   0  0  0  0  0  0  0  0  0  0  0  0
  1  2  1  0
  3  2  1  1
  1  4  1  0
  4  5  2  0
  4  6  1  0
  6  7  2  0
  5  8  1  0
  3  9  1  0
  3 10  1  0
  9 11  1  6
  7 12  1  0
  8 12  2  0
  9 13  1  0
 10 14  1  0
 11 15  1  0
 13 16  1  0
 14 16  1  0
 14 17  1  0
 17 18  2  0
 17 19  1  0
 18 20  1  0
 19 21  2  0
 20 22  2  0
 21 22  1  0
M  END
>  <%Rank>  (628) 
47.862595

>  <N_hits>  (628) 
2

>  <submitter_name>  (628) 
nan

>  <original SMILES>  (628) 
nan

>  <∆G_unbound>  (628) 
0.265673

>  <∆G_bound>  (628) 
-1.278312

>  <regarded>  (628) 
mArh-x0805_0_A_α,mArh-x0282_0_A_α

>  <ref_pdb>  (628) 
nan

>  <smiles>  (628) 
OCC1CCN(c2ncccn2)CC1COc1ccccc1

>  <submitter_email>  (628) 
nan

>  <disregarded>  (628) 


>  <LE>  (628) 
-0.070181

>  <submitter_institution>  (628) 
nan

>  <ref_mols>  (628) 
mArh-x0805_0_A,mArh-x0282_0_A

>  <N_constrained_atoms>  (628) 
22.0

>  <ref_url>  (628) 
nan

>  <method>  (628) 
nan

>  <comRMSD>  (628) 
0.724009

>  <N_unconstrained_atoms>  (628) 
0.0

>  <∆∆G>  (628) 
-1.543985

>  <runtime>  (628) 
31.343241

>  <generation_date>  (628) 
nan

$$$$
mArh-x0918_0_B_α-5CB5_0_C_α
     RDKit          3D

 19 20  0  0  0  0  0  0  0  0999 V2000
   -3.4410   29.8730  -14.1900 N   0  0  0  0  0  0  0  0  0  0  0  0
   -4.6350   29.3600  -13.6730 C   0  0  0  0  0  0  0  0  0  0  0  0
   -4.7520   28.9530  -12.3370 C   0  0  0  0  0  0  0  0  0  0  0  0
   -5.7440   29.2510  -14.4860 C   0  0  0  0  0  0  0  0  0  0  0  0
   -6.9020   28.7430  -13.9460 C   0  0  0  0  0  0  0  0  0  0  0  0
   -5.9670   28.4390  -11.8650 C   0  0  0  0  0  0  0  0  0  0  0  0
   -6.2240   27.9970  -10.4340 C   0  0  0  0  0  0  0  0  0  0  0  0
   -7.0330   28.3390  -12.6710 N   0  0  0  0  0  0  0  0  0  0  0  0
   -6.2470   26.5730   -9.7200 C   0  0  0  0  0  0  0  0  0  0  0  0
   -5.9230   25.1800  -10.3270 C   0  0  0  0  0  0  0  0  0  0  0  0
   -4.7380   24.5870   -9.6960 O   0  0  0  0  0  0  0  0  0  0  0  0
   -4.9200   23.3830   -8.8740 C   0  0  1  0  0  0  0  0  0  0  0  0
   -3.7490   22.3700   -8.9640 C   0  0  1  0  0  0  0  0  0  0  0  0
   -4.7590   23.5000   -7.3500 C   0  0  1  0  0  0  0  0  0  0  0  0
   -2.4240   22.7160   -8.2930 C   0  0  0  0  0  0  0  0  0  0  0  0
   -5.6840   24.2720   -6.5890 O   0  0  0  0  0  0  0  0  0  0  0  0
   -4.2640   21.3160   -8.1670 O   0  0  0  0  0  0  0  0  0  0  0  0
   -4.7630   21.9850   -6.9970 C   0  0  2  0  0  0  0  0  0  0  0  0
   -6.0380   21.4630   -6.6430 O   0  0  0  0  0  0  0  0  0  0  0  0
  1  2  1  0
  2  3  2  0
  2  4  1  0
  4  5  2  0
  3  6  1  0
  6  7  1  0
  5  8  1  0
  6  8  2  0
  7  9  1  0
  9 10  1  0
 10 11  1  0
 12 11  1  6
 12 13  1  0
 12 14  1  0
 13 15  1  1
 14 16  1  1
 13 17  1  0
 14 18  1  0
 17 18  1  0
 18 19  1  6
M  END
>  <%Rank>  (629) 
47.938931

>  <N_hits>  (629) 
2

>  <submitter_name>  (629) 
nan

>  <original SMILES>  (629) 
nan

>  <∆G_unbound>  (629) 
1.246004

>  <∆G_bound>  (629) 
-8.930757

>  <regarded>  (629) 
mArh-x0918_0_B_α,5CB5_0_C_α

>  <ref_pdb>  (629) 
nan

>  <smiles>  (629) 
CC1OC(O)C(O)C1OCCCc1cc(N)ccn1

>  <submitter_email>  (629) 
nan

>  <disregarded>  (629) 


>  <LE>  (629) 
-0.535619

>  <submitter_institution>  (629) 
nan

>  <ref_mols>  (629) 
mArh-x0918_0_B,5CB5_0_C

>  <N_constrained_atoms>  (629) 
16.0

>  <ref_url>  (629) 
nan

>  <method>  (629) 
nan

>  <comRMSD>  (629) 
0.743983

>  <N_unconstrained_atoms>  (629) 
3.0

>  <∆∆G>  (629) 
-10.176762

>  <runtime>  (629) 
39.543202

>  <generation_date>  (629) 
nan

$$$$
mArh-x0524_0_A_α-mArh-x0471_0_A_α
     RDKit          3D

 38 41  0  0  0  0  0  0  0  0999 V2000
   -0.3660    8.6200   -7.9920 N   0  0  0  0  0  0  0  0  0  0  0  0
   -0.7240    9.7040   -7.2000 C   0  0  0  0  0  0  0  0  0  0  0  0
   -1.9960    9.4810   -6.3920 C   0  0  0  0  0  0  0  0  0  0  0  0
    0.6040    8.6650   -9.0190 C   0  0  0  0  0  0  0  0  0  0  0  0
   -0.1100   10.7570   -7.1250 O   0  0  0  0  0  0  0  0  0  0  0  0
    1.7230    7.8350   -8.9020 C   0  0  0  0  0  0  0  0  0  0  0  0
    0.5010    9.4940  -10.1360 C   0  0  0  0  0  0  0  0  0  0  0  0
   -2.6560   10.8160   -5.9980 C   0  0  0  0  0  0  0  0  0  0  0  0
    2.7220    7.8400   -9.8880 C   0  0  0  0  0  0  0  0  0  0  0  0
    1.4980    9.4940  -11.1170 C   0  0  0  0  0  0  0  0  0  0  0  0
   -1.8640   11.5680   -4.9150 C   0  0  0  0  0  0  0  0  0  0  0  0
    2.6220    8.6720  -11.0110 C   0  0  0  0  0  0  0  0  0  0  0  0
    3.6360    8.6610  -11.9800 N   0  0  0  0  0  0  0  0  0  0  0  0
   -2.4550   12.9430   -4.5320 C   0  0  0  0  0  0  0  0  0  0  0  0
   -2.2080   13.4110   -3.0780 C   0  0  0  0  0  0  0  0  0  0  0  0
    3.9210    9.5430  -13.0390 C   0  0  0  0  0  0  0  0  0  0  0  0
   -2.6320   14.8480   -2.6900 C   0  0  0  0  0  0  0  0  0  0  0  0
    3.1930   10.7160  -13.2860 C   0  0  0  0  0  0  0  0  0  0  0  0
    4.9900    9.2420  -13.8940 C   0  0  0  0  0  0  0  0  0  0  0  0
    3.5200   11.5570  -14.3510 C   0  0  0  0  0  0  0  0  0  0  0  0
    5.3190   10.0800  -14.9600 C   0  0  0  0  0  0  0  0  0  0  0  0
   -3.5850   14.8600   -1.5070 C   0  0  0  0  0  0  0  0  0  0  0  0
    4.5850   11.2390  -15.1890 C   0  0  0  0  0  0  0  0  0  0  0  0
   -4.9670   14.7710   -1.7470 C   0  0  0  0  0  0  0  0  0  0  0  0
   -3.1040   14.9420   -0.1860 C   0  0  0  0  0  0  0  0  0  0  0  0
   -5.8140   14.7400   -0.6390 C   0  0  0  0  0  0  0  0  0  0  0  0
   -3.9760   14.9190    0.9110 C   0  0  0  0  0  0  0  0  0  0  0  0
   -7.1770   14.6390   -0.5240 N   0  0  0  0  0  0  0  0  0  0  0  0
   -5.3530   14.8070    0.6670 C   0  0  0  0  0  0  0  0  0  0  0  0
   -7.4920   14.6420    0.8090 C   0  0  0  0  0  0  0  0  0  0  0  0
   -6.4030   14.7460    1.5460 N   0  0  0  0  0  0  0  0  0  0  0  0
   -8.8980   14.5360    1.3070 C   0  0  0  0  0  0  0  0  0  0  0  0
   -8.8440   14.1120    2.6900 N   0  0  0  0  0  0  0  0  0  0  0  0
   -8.9670   15.0130    3.7250 C   0  0  0  0  0  0  0  0  0  0  0  0
   -9.2980   16.1840    3.5510 O   0  0  0  0  0  0  0  0  0  0  0  0
   -8.6660   14.4180    5.1000 C   0  0  0  0  0  0  0  0  0  0  0  0
   -9.8840   13.6530    5.6350 C   0  0  0  0  0  0  0  0  0  0  0  0
   -8.2760   15.5250    6.0800 C   0  0  0  0  0  0  0  0  0  0  0  0
  1  2  1  0
  2  3  1  0
  1  4  1  0
  2  5  2  0
  4  6  2  0
  4  7  1  0
  3  8  1  0
  6  9  1  0
  7 10  2  0
  8 11  1  0
  9 12  2  0
 10 12  1  0
 12 13  1  0
 11 14  1  0
 14 15  1  0
 13 16  1  0
 15 17  1  0
 16 18  2  0
 16 19  1  0
 18 20  1  0
 19 21  2  0
 17 22  1  0
 20 23  2  0
 21 23  1  0
 22 24  2  0
 22 25  1  0
 24 26  1  0
 25 27  2  0
 26 28  1  0
 26 29  2  0
 27 29  1  0
 28 30  1  0
 29 31  1  0
 30 31  2  0
 30 32  1  0
 32 33  1  0
 33 34  1  0
 34 35  2  0
 34 36  1  0
 36 37  1  0
 36 38  1  0
M  END
>  <%Rank>  (630) 
48.015267

>  <N_hits>  (630) 
2

>  <submitter_name>  (630) 
nan

>  <original SMILES>  (630) 
nan

>  <∆G_unbound>  (630) 
0.13625

>  <∆G_bound>  (630) 
-8.176048

>  <regarded>  (630) 
mArh-x0524_0_A_α,mArh-x0471_0_A_α

>  <ref_pdb>  (630) 
nan

>  <smiles>  (630) 
CC(C)C(=O)NCc1nc2ccc(CCCCCCC(=O)Nc3ccc(Nc4ccccc4)cc3)cc2[nH]1

>  <submitter_email>  (630) 
nan

>  <disregarded>  (630) 


>  <LE>  (630) 
-0.218745

>  <submitter_institution>  (630) 
nan

>  <ref_mols>  (630) 
mArh-x0524_0_A,mArh-x0471_0_A

>  <N_constrained_atoms>  (630) 
33.0

>  <ref_url>  (630) 
nan

>  <method>  (630) 
nan

>  <comRMSD>  (630) 
0.871454

>  <N_unconstrained_atoms>  (630) 
5.0

>  <∆∆G>  (630) 
-8.312298

>  <runtime>  (630) 
92.471277

>  <generation_date>  (630) 
nan

$$$$
mArh-5l9k_B_0_B_α-mArh-5cms_K_10_K_β
     RDKit          3D

 17 17  0  0  0  0  0  0  0  0999 V2000
   -2.0800   21.3500   -8.7120 C   0  0  0  0  0  0  0  0  0  0  0  0
   -0.8820   20.2960   -7.8440 P   0  0  2  0  0  0  0  0  0  0  0  0
   -1.4880   19.7310   -6.4980 O   0  0  0  0  0  0  0  0  0  0  0  0
   -3.5350   21.7470   -8.3550 C   0  0  1  0  0  0  0  0  0  0  0  0
    0.4790   20.8960   -7.6850 O   0  0  0  0  0  0  0  0  0  0  0  0
   -0.7080   18.9340   -8.6950 O   0  0  0  0  0  0  0  0  0  0  0  0
   -4.0350   21.1270   -7.1680 O   0  0  0  0  0  0  0  0  0  0  0  0
   -3.8360   23.2640   -8.2070 C   0  0  1  0  0  0  0  0  0  0  0  0
   -4.6540   23.7680   -9.2820 O   0  0  0  0  0  0  0  0  0  0  0  0
   -1.7280   18.1980   -6.1930 P   0  0  0  0  0  0  0  0  0  0  0  0
   -5.1260   21.9470   -6.7520 C   0  0  1  0  0  0  0  0  0  0  0  0
   -4.5820   23.3600   -6.8700 C   0  0  2  0  0  0  0  0  0  0  0  0
   -6.2860   21.7650   -7.5560 O   0  0  0  0  0  0  0  0  0  0  0  0
   -5.7020   24.2570   -6.8920 O   0  0  0  0  0  0  0  0  0  0  0  0
   -0.3060   17.4990   -6.1270 O   0  0  0  0  0  0  0  0  0  0  0  0
   -2.7110   17.4540   -6.9950 O   0  0  0  0  0  0  0  0  0  0  0  0
   -2.0600   18.2000   -4.6590 O   0  0  0  0  0  0  0  0  0  0  0  0
  1  2  1  0
  2  3  1  0
  4  1  1  1
  2  5  2  0
  2  6  1  6
  4  7  1  0
  4  8  1  0
  8  9  1  6
  3 10  1  0
  7 11  1  0
  8 12  1  0
 11 12  1  0
 11 13  1  6
 12 14  1  6
 10 15  1  0
 10 16  2  0
 10 17  1  0
M  END
>  <%Rank>  (631) 
48.091603

>  <N_hits>  (631) 
2

>  <submitter_name>  (631) 
nan

>  <original SMILES>  (631) 
nan

>  <∆G_unbound>  (631) 
1.703844

>  <∆G_bound>  (631) 
-11.4892

>  <regarded>  (631) 
mArh-5l9k_B_0_B_α,mArh-5cms_K_10_K_β

>  <ref_pdb>  (631) 
nan

>  <smiles>  (631) 
O=P(O)(O)OP(=O)(O)CC1OC(O)C(O)C1O

>  <submitter_email>  (631) 
nan

>  <disregarded>  (631) 


>  <LE>  (631) 
-0.776061

>  <submitter_institution>  (631) 
nan

>  <ref_mols>  (631) 
mArh-5l9k_B_0_B,mArh-5cms_K_10_K

>  <N_constrained_atoms>  (631) 
17.0

>  <ref_url>  (631) 
nan

>  <method>  (631) 
nan

>  <comRMSD>  (631) 
0.982617

>  <N_unconstrained_atoms>  (631) 
0.0

>  <∆∆G>  (631) 
-13.193044

>  <runtime>  (631) 
28.70915

>  <generation_date>  (631) 
nan

$$$$
5CB5_0_L_β-5CB5_0_A_α
     RDKit          3D

 17 17  0  0  0  0  0  0  0  0999 V2000
   -1.8270   21.1860   -9.0140 O   0  0  0  0  0  0  0  0  0  0  0  0
   -0.7770   20.3670   -7.9510 P   0  0  0  0  0  0  0  0  0  0  0  0
   -1.3760   19.7780   -6.5510 O   0  0  0  0  0  0  0  0  0  0  0  0
   -3.1660   21.5600   -8.6810 C   0  0  1  0  0  0  0  0  0  0  0  0
   -0.4740   21.7110   -7.3100 O   0  0  0  0  0  0  0  0  0  0  0  0
   -0.9290   19.0130   -8.6410 O   0  0  0  0  0  0  0  0  0  0  0  0
   -3.6800   21.1940   -7.4690 O   0  0  0  0  0  0  0  0  0  0  0  0
   -3.3730   23.1010   -8.6480 C   0  0  1  0  0  0  0  0  0  0  0  0
   -1.2900   18.3150   -6.0780 P   0  0  0  0  0  0  0  0  0  0  0  0
   -3.9450   23.4350   -9.8690 O   0  0  0  0  0  0  0  0  0  0  0  0
   -4.8710   21.8760   -7.3590 C   0  0  2  0  0  0  0  0  0  0  0  0
   -4.4790   23.2940   -7.5950 C   0  0  2  0  0  0  0  0  0  0  0  0
   -1.0610   16.8510   -5.6780 O   0  0  0  0  0  0  0  0  0  0  0  0
   -2.5780   17.9280   -7.0070 O   0  0  0  0  0  0  0  0  0  0  0  0
   -1.5900   18.7510   -4.5290 O   0  0  0  0  0  0  0  0  0  0  0  0
   -5.6050   21.7080   -6.1870 O   0  0  0  0  0  0  0  0  0  0  0  0
   -5.4820   24.0110   -8.2690 O   0  0  0  0  0  0  0  0  0  0  0  0
  1  2  1  0
  2  3  1  0
  4  1  1  1
  2  5  1  0
  2  6  1  0
  4  7  1  0
  4  8  1  0
  3  9  1  0
  8 10  1  6
  7 11  1  0
  8 12  1  0
 11 12  1  0
  9 13  1  0
  9 14  1  0
  9 15  1  0
 11 16  1  1
 12 17  1  6
M  CHG  2   5  -1  14  -1
M  END
>  <%Rank>  (632) 
48.167939

>  <N_hits>  (632) 
2

>  <submitter_name>  (632) 
nan

>  <original SMILES>  (632) 
nan

>  <∆G_unbound>  (632) 
0.972863

>  <∆G_bound>  (632) 
-6.906999

>  <regarded>  (632) 
5CB5_0_L_β,5CB5_0_A_α

>  <ref_pdb>  (632) 
nan

>  <smiles>  (632) 
[O-][PH](O)(O)O[PH]([O-])(O)OC1OC(O)C(O)C1O

>  <submitter_email>  (632) 
nan

>  <disregarded>  (632) 


>  <LE>  (632) 
-0.463521

>  <submitter_institution>  (632) 
nan

>  <ref_mols>  (632) 
5CB5_0_L,5CB5_0_A

>  <N_constrained_atoms>  (632) 
17.0

>  <ref_url>  (632) 
nan

>  <method>  (632) 
nan

>  <comRMSD>  (632) 
0.826938

>  <N_unconstrained_atoms>  (632) 
0.0

>  <∆∆G>  (632) 
-7.879862

>  <runtime>  (632) 
30.247352

>  <generation_date>  (632) 
nan

$$$$
5CB5_0_J_γ-5FUD_0_A_α
     RDKit          3D

 21 22  0  0  0  0  0  0  0  0999 V2000
   -0.8510   12.4690   -4.0650 O   0  0  0  0  0  0  0  0  0  0  0  0
   -0.1550   13.6930   -3.8770 C   0  0  2  0  0  0  0  0  0  0  0  0
   -0.9050   14.6540   -2.9870 C   0  0  0  0  0  0  0  0  0  0  0  0
   -0.0500   14.4460   -5.1970 C   0  0  2  0  0  0  0  0  0  0  0  0
    1.2580   14.2160   -5.7000 O   0  0  0  0  0  0  0  0  0  0  0  0
   -0.4110   15.9320   -3.3930 O   0  0  0  0  0  0  0  0  0  0  0  0
   -0.3410   15.9220   -4.8220 C   0  0  1  0  0  0  0  0  0  0  0  0
    0.6610   16.9730   -5.3220 C   0  0  0  0  0  0  0  0  0  0  0  0
    0.1650   18.4250   -5.4030 C   0  0  0  0  0  0  0  0  0  0  0  0
   -0.8090   18.6970   -6.4280 O   0  0  0  0  0  0  0  0  0  0  0  0
   -0.4500   19.6400   -7.7030 S   0  0  0  0  0  0  0  0  0  0  0  0
    0.6840   20.7500   -7.5110 O   0  0  0  0  0  0  0  0  0  0  0  0
   -0.0560   18.6550   -8.9000 O   0  0  0  0  0  0  0  0  0  0  0  0
   -1.9300   20.5270   -8.1410 C   0  0  0  0  0  0  0  0  0  0  0  0
   -2.2200   21.8810   -7.5500 C   0  0  0  0  0  0  0  0  0  0  0  0
   -3.6660   22.2480   -7.6600 N   0  0  0  0  0  0  0  0  0  0  0  0
   -4.1640   22.4670   -9.0380 C   0  0  0  0  0  0  0  0  0  0  0  0
   -3.9510   23.4940   -6.9400 C   0  0  0  0  0  0  0  0  0  0  0  0
   -5.6800   22.7020   -9.0910 C   0  0  0  0  0  0  0  0  0  0  0  0
   -5.4490   23.7120   -6.9220 C   0  0  0  0  0  0  0  0  0  0  0  0
   -6.0830   23.7610   -8.2140 O   0  0  0  0  0  0  0  0  0  0  0  0
  2  1  1  6
  2  3  1  0
  2  4  1  0
  4  5  1  1
  3  6  1  0
  4  7  1  0
  6  7  1  0
  7  8  1  1
  8  9  1  0
  9 10  1  0
 11 10  1  0
 11 12  1  0
 11 13  1  0
 11 14  1  0
 14 15  1  0
 15 16  1  0
 16 17  1  0
 16 18  1  0
 17 19  1  0
 18 20  1  0
 19 21  1  0
 20 21  1  0
M  END
>  <%Rank>  (633) 
48.244275

>  <N_hits>  (633) 
2

>  <submitter_name>  (633) 
nan

>  <original SMILES>  (633) 
nan

>  <∆G_unbound>  (633) 
0.911523

>  <∆G_bound>  (633) 
-9.355266

>  <regarded>  (633) 
5CB5_0_J_γ,5FUD_0_A_α

>  <ref_pdb>  (633) 
nan

>  <smiles>  (633) 
OC1COC(CCOS(O)(O)CCN2CCOCC2)C1O

>  <submitter_email>  (633) 
nan

>  <disregarded>  (633) 


>  <LE>  (633) 
-0.488895

>  <submitter_institution>  (633) 
nan

>  <ref_mols>  (633) 
5CB5_0_J,5FUD_0_A

>  <N_constrained_atoms>  (633) 
20.0

>  <ref_url>  (633) 
nan

>  <method>  (633) 
nan

>  <comRMSD>  (633) 
0.87592

>  <N_unconstrained_atoms>  (633) 
1.0

>  <∆∆G>  (633) 
-10.266788

>  <runtime>  (633) 
33.271319

>  <generation_date>  (633) 
nan

$$$$
mArh-EU0860_0_A_β-mArh-5cb5_J_2_J_γ
     RDKit          3D

 22 23  0  0  0  0  0  0  0  0999 V2000
    2.0540    9.5270  -11.2410 N   0  0  0  0  0  0  0  0  0  0  0  0
    2.7970    9.8950  -12.3690 C   0  0  0  0  0  0  0  0  0  0  0  0
    3.8840    9.0940  -12.7450 C   0  0  0  0  0  0  0  0  0  0  0  0
    2.4800   11.0320  -13.1100 C   0  0  0  0  0  0  0  0  0  0  0  0
    1.2930   11.9010  -12.7120 C   0  0  0  0  0  0  0  0  0  0  0  0
    3.2830   11.3570  -14.2410 C   0  0  0  0  0  0  0  0  0  0  0  0
    4.6610    9.4130  -13.8530 C   0  0  0  0  0  0  0  0  0  0  0  0
    1.1320   12.2490  -11.2090 C   0  0  0  0  0  0  0  0  0  0  0  0
    4.3650   10.5370  -14.5980 C   0  0  0  0  0  0  0  0  0  0  0  0
    5.1640   10.8020  -15.6740 O   0  0  0  0  0  0  0  0  0  0  0  0
    0.0420   11.5740  -10.3070 C   0  0  0  0  0  0  0  0  0  0  0  0
    0.5150   11.0590   -8.9090 C   0  0  0  0  0  0  0  0  0  0  0  0
   -0.1530   11.6150   -7.5980 C   0  0  0  0  0  0  0  0  0  0  0  0
    0.7380   12.3050   -6.5070 C   0  0  0  0  0  0  0  0  0  0  0  0
    0.4050   13.7010   -6.2130 O   0  0  0  0  0  0  0  0  0  0  0  0
    0.5260   14.0440   -4.8000 C   0  0  1  0  0  0  0  0  0  0  0  0
    0.7960   15.5440   -4.4480 C   0  0  1  0  0  0  0  0  0  0  0  0
   -0.8240   13.8150   -4.1490 C   0  0  1  0  0  0  0  0  0  0  0  0
   -1.0490   12.4420   -3.8880 O   0  0  0  0  0  0  0  0  0  0  0  0
    0.4110   16.6320   -5.4330 C   0  0  0  0  0  0  0  0  0  0  0  0
   -0.7220   14.6650   -2.8950 C   0  0  0  0  0  0  0  0  0  0  0  0
    0.0230   15.8350   -3.2590 O   0  0  0  0  0  0  0  0  0  0  0  0
  1  2  1  0
  2  3  2  0
  2  4  1  0
  4  5  1  0
  4  6  2  0
  3  7  1  0
  5  8  1  0
  6  9  1  0
  7  9  2  0
  9 10  1  0
  8 11  1  0
 11 12  1  0
 12 13  1  0
 13 14  1  0
 14 15  1  0
 16 15  1  6
 16 17  1  0
 16 18  1  0
 18 19  1  1
 17 20  1  6
 18 21  1  0
 17 22  1  0
 21 22  1  0
M  END
>  <%Rank>  (634) 
48.320611

>  <N_hits>  (634) 
2

>  <submitter_name>  (634) 
nan

>  <original SMILES>  (634) 
nan

>  <∆G_unbound>  (634) 
0.772152

>  <∆G_bound>  (634) 
-6.855919

>  <regarded>  (634) 
mArh-EU0860_0_A_β,mArh-5cb5_J_2_J_γ

>  <ref_pdb>  (634) 
nan

>  <smiles>  (634) 
CC1OCC(O)C1OCCCCCCc1cc(O)ccc1N

>  <submitter_email>  (634) 
nan

>  <disregarded>  (634) 


>  <LE>  (634) 
-0.346731

>  <submitter_institution>  (634) 
nan

>  <ref_mols>  (634) 
mArh-EU0860_0_A,mArh-5cb5_J_2_J

>  <N_constrained_atoms>  (634) 
16.0

>  <ref_url>  (634) 
nan

>  <method>  (634) 
nan

>  <comRMSD>  (634) 
0.560134

>  <N_unconstrained_atoms>  (634) 
6.0

>  <∆∆G>  (634) 
-7.628071

>  <runtime>  (634) 
27.865109

>  <generation_date>  (634) 
nan

$$$$
mArh-5cb5_F_1_F_β-5CB5_0_Q_δ
     RDKit          3D

 21 22  0  0  0  0  0  0  0  0999 V2000
   -1.6470   20.3960   -8.2870 O   0  0  0  0  0  0  0  0  0  0  0  0
   -0.3020   19.6530   -7.8660 P   0  0  0  0  0  0  0  0  0  0  0  0
   -0.5080   19.1760   -6.3710 O   0  0  0  0  0  0  0  0  0  0  0  0
    0.1030   18.6180   -8.8410 O   0  0  0  0  0  0  0  0  0  0  0  0
    0.7010   20.8860   -7.7820 O   0  0  0  0  0  0  0  0  0  0  0  0
   -1.5410   18.0690   -5.8800 P   0  0  2  0  0  0  0  0  0  0  0  0
   -0.6040   16.7880   -5.5410 O   0  0  0  0  0  0  0  0  0  0  0  0
   -2.6730   17.7920   -6.8070 O   0  0  0  0  0  0  0  0  0  0  0  0
   -1.9110   18.7420   -4.4870 O   0  0  0  0  0  0  0  0  0  0  0  0
   -0.4730   16.1040   -4.2780 C   0  0  0  0  0  0  0  0  0  0  0  0
   -1.8020   15.4010   -3.8510 C   0  0  0  0  0  0  0  0  0  0  0  0
   -1.7920   14.4280   -2.6910 N   0  0  0  0  0  0  0  0  0  0  0  0
   -1.4210   14.7850   -1.2880 C   0  0  1  0  0  0  0  0  0  0  0  0
   -3.2020   14.0050   -2.5270 C   0  0  0  0  0  0  0  0  0  0  0  0
   -2.7850   15.1000   -0.6190 C   0  0  1  0  0  0  0  0  0  0  0  0
   -3.5560   13.9750   -1.1050 N   0  0  0  0  0  0  0  0  0  0  0  0
   -0.6740   13.8470   -0.4910 N   0  0  0  0  0  0  0  0  0  0  0  0
   -0.4200   14.4710    0.8120 C   0  0  0  0  0  0  0  0  0  0  0  0
   -2.7020   15.3220    0.9140 C   0  0  1  0  0  0  0  0  0  0  0  0
   -3.9740   15.1040    1.5690 N   0  0  0  0  0  0  0  0  0  0  0  0
   -1.6580   14.5540    1.5630 N   0  0  0  0  0  0  0  0  0  0  0  0
  1  2  1  0
  2  3  1  0
  2  4  2  0
  2  5  1  0
  3  6  1  0
  6  7  1  0
  6  8  2  0
  6  9  1  1
  7 10  1  0
 10 11  1  0
 11 12  1  0
 12 13  1  0
 12 14  1  0
 13 15  1  0
 14 16  1  0
 15 16  1  1
 13 17  1  1
 17 18  1  0
 15 19  1  0
 19 20  1  1
 18 21  1  0
 19 21  1  0
M  END
>  <%Rank>  (635) 
48.396947

>  <N_hits>  (635) 
2

>  <submitter_name>  (635) 
nan

>  <original SMILES>  (635) 
nan

>  <∆G_unbound>  (635) 
1.152563

>  <∆G_bound>  (635) 
-8.829374

>  <regarded>  (635) 
mArh-5cb5_F_1_F_β,5CB5_0_Q_δ

>  <ref_pdb>  (635) 
nan

>  <smiles>  (635) 
NC1NCNC2C1NCN2CCOP(=O)(O)OP(=O)(O)O

>  <submitter_email>  (635) 
nan

>  <disregarded>  (635) 


>  <LE>  (635) 
-0.47533

>  <submitter_institution>  (635) 
nan

>  <ref_mols>  (635) 
mArh-5cb5_F_1_F,5CB5_0_Q

>  <N_constrained_atoms>  (635) 
19.0

>  <ref_url>  (635) 
nan

>  <method>  (635) 
nan

>  <comRMSD>  (635) 
0.823714

>  <N_unconstrained_atoms>  (635) 
2.0

>  <∆∆G>  (635) 
-9.981937

>  <runtime>  (635) 
28.926499

>  <generation_date>  (635) 
nan

$$$$
5CMS_0_K_γ-5CMS_0_K_β
     RDKit          3D

 16 16  0  0  0  0  0  0  0  0999 V2000
   -1.5970   12.6840   -4.1720 O   0  0  0  0  0  0  0  0  0  0  0  0
   -0.4280   13.4050   -3.9630 C   0  0  2  0  0  0  0  0  0  0  0  0
   -0.5520   14.4210   -2.8330 C   0  0  0  0  0  0  0  0  0  0  0  0
   -0.0430   14.2450   -5.1560 C   0  0  2  0  0  0  0  0  0  0  0  0
    1.3340   14.0900   -5.2740 O   0  0  0  0  0  0  0  0  0  0  0  0
    0.0030   15.5920   -3.3650 O   0  0  0  0  0  0  0  0  0  0  0  0
   -0.4760   15.5860   -4.6580 C   0  0  1  0  0  0  0  0  0  0  0  0
   -0.0900   16.8690   -5.4070 C   0  0  0  0  0  0  0  0  0  0  0  0
   -1.4280   17.9570   -5.8100 P   0  0  0  0  0  0  0  0  0  0  0  0
   -0.6120   19.1780   -6.2210 O   0  0  0  0  0  0  0  0  0  0  0  0
   -2.0970   18.0590   -7.3590 O   0  0  0  0  0  0  0  0  0  0  0  0
   -2.1310   18.9060   -4.7400 O   0  0  0  0  0  0  0  0  0  0  0  0
   -0.0600   19.6060   -7.6490 P   0  0  0  0  0  0  0  0  0  0  0  0
   -1.4030   20.1570   -8.1510 O   0  0  0  0  0  0  0  0  0  0  0  0
    0.5920   21.1310   -7.8610 O   0  0  0  0  0  0  0  0  0  0  0  0
    0.0740   18.4990   -8.8510 O   0  0  0  0  0  0  0  0  0  0  0  0
  2  1  1  6
  2  3  1  0
  2  4  1  0
  4  5  1  1
  3  6  1  0
  4  7  1  0
  6  7  1  0
  7  8  1  6
  8  9  1  0
  9 10  1  0
  9 11  1  0
  9 12  1  0
 10 13  1  0
 13 14  1  0
 13 15  1  0
 13 16  1  0
M  CHG  2  11  -1  15  -1
M  END
>  <%Rank>  (636) 
48.473282

>  <N_hits>  (636) 
2

>  <submitter_name>  (636) 
nan

>  <original SMILES>  (636) 
nan

>  <∆G_unbound>  (636) 
0.683631

>  <∆G_bound>  (636) 
-6.927671

>  <regarded>  (636) 
5CMS_0_K_γ,5CMS_0_K_β

>  <ref_pdb>  (636) 
nan

>  <smiles>  (636) 
[O-][PH](O)(O)O[PH]([O-])(O)CC1OCC(O)C1O

>  <submitter_email>  (636) 
nan

>  <disregarded>  (636) 


>  <LE>  (636) 
-0.475706

>  <submitter_institution>  (636) 
nan

>  <ref_mols>  (636) 
5CMS_0_K,5CMS_0_K

>  <N_constrained_atoms>  (636) 
16.0

>  <ref_url>  (636) 
nan

>  <method>  (636) 
nan

>  <comRMSD>  (636) 
0.813104

>  <N_unconstrained_atoms>  (636) 
0.0

>  <∆∆G>  (636) 
-7.611302

>  <runtime>  (636) 
32.666346

>  <generation_date>  (636) 
nan

$$$$
mArh-x0950_0_A_α-mArh-5cms_E_5_E_γ
     RDKit          3D

 13 13  0  0  0  0  0  0  0  0999 V2000
    3.1160   12.9050   -3.6400 C   0  0  0  0  0  0  0  0  0  0  0  0
    1.6340   13.1900   -3.6450 C   0  0  1  0  0  0  0  0  0  0  0  0
    1.1850   13.1570   -5.0130 O   0  0  0  0  0  0  0  0  0  0  0  0
    0.9210   12.1230   -2.7970 C   0  0  0  0  0  0  0  0  0  0  0  0
    0.5510   11.0350   -3.2040 O   0  0  0  0  0  0  0  0  0  0  0  0
    0.7450   12.5360   -1.5020 O   0  0  0  0  0  0  0  0  0  0  0  0
   -0.0050   13.9170   -5.2540 C   0  0  2  0  0  0  0  0  0  0  0  0
   -0.0550   15.3790   -4.7800 C   0  0  2  0  0  0  0  0  0  0  0  0
   -1.1840   13.3730   -4.4880 C   0  0  1  0  0  0  0  0  0  0  0  0
   -0.9810   11.9730   -4.3400 O   0  0  0  0  0  0  0  0  0  0  0  0
    1.1370   16.2720   -5.0100 C   0  0  0  0  0  0  0  0  0  0  0  0
   -1.0990   14.1160   -3.1470 C   0  0  0  0  0  0  0  0  0  0  0  0
   -0.3280   15.3150   -3.3720 O   0  0  0  0  0  0  0  0  0  0  0  0
  2  1  1  6
  2  3  1  0
  2  4  1  0
  4  5  2  0
  4  6  1  0
  7  3  1  1
  7  8  1  0
  7  9  1  0
  9 10  1  1
  8 11  1  1
  9 12  1  0
  8 13  1  0
 12 13  1  0
M  END
>  <%Rank>  (637) 
48.549618

>  <N_hits>  (637) 
2

>  <submitter_name>  (637) 
nan

>  <original SMILES>  (637) 
nan

>  <∆G_unbound>  (637) 
0.366609

>  <∆G_bound>  (637) 
-1.748875

>  <regarded>  (637) 
mArh-x0950_0_A_α,mArh-5cms_E_5_E_γ

>  <ref_pdb>  (637) 
nan

>  <smiles>  (637) 
CC1OCC(O)C1O[C@H](C)C(=O)O

>  <submitter_email>  (637) 
nan

>  <disregarded>  (637) 


>  <LE>  (637) 
-0.16273

>  <submitter_institution>  (637) 
nan

>  <ref_mols>  (637) 
mArh-x0950_0_A,mArh-5cms_E_5_E

>  <N_constrained_atoms>  (637) 
13.0

>  <ref_url>  (637) 
nan

>  <method>  (637) 
nan

>  <comRMSD>  (637) 
0.582397

>  <N_unconstrained_atoms>  (637) 
0.0

>  <∆∆G>  (637) 
-2.115484

>  <runtime>  (637) 
32.252625

>  <generation_date>  (637) 
nan

$$$$
mArh-5cms_D_3_D_α-5CMS_0_B_δ
     RDKit          3D

 21 22  0  0  0  0  0  0  0  0999 V2000
   -0.1220   17.1270   -6.2900 O   0  0  0  0  0  0  0  0  0  0  0  0
   -1.3340   18.2410   -5.9200 P   0  0  0  0  0  0  0  0  0  0  0  0
   -2.2860   17.6000   -6.9360 O   0  0  0  0  0  0  0  0  0  0  0  0
   -2.3090   17.8010   -4.7470 O   0  0  0  0  0  0  0  0  0  0  0  0
   -1.2880   19.6800   -6.7220 O   0  0  0  0  0  0  0  0  0  0  0  0
   -0.6350   19.9540   -8.0930 P   0  0  0  0  0  0  0  0  0  0  0  0
   -2.4410   16.4460   -4.4930 C   0  0  0  0  0  0  0  0  0  0  0  0
   -1.9180   20.8910   -8.5350 O   0  0  0  0  0  0  0  0  0  0  0  0
   -0.5120   18.4330   -8.5480 O   0  0  0  0  0  0  0  0  0  0  0  0
    0.7080   20.6850   -7.4460 O   0  0  0  0  0  0  0  0  0  0  0  0
   -2.0710   16.0800   -3.0940 C   0  0  0  0  0  0  0  0  0  0  0  0
   -2.6260   14.8080   -2.5540 C   0  0  1  0  0  0  0  0  0  0  0  0
   -1.5760   13.9610   -2.1060 N   0  0  0  0  0  0  0  0  0  0  0  0
   -3.5120   15.0610   -1.4520 N   0  0  0  0  0  0  0  0  0  0  0  0
   -1.5630   13.9940   -0.6860 C   0  0  2  0  0  0  0  0  0  0  0  0
   -2.8940   14.5290   -0.2770 C   0  0  1  0  0  0  0  0  0  0  0  0
   -0.5290   14.8180   -0.1070 N   0  0  0  0  0  0  0  0  0  0  0  0
   -2.7100   15.5700    0.7930 C   0  0  1  0  0  0  0  0  0  0  0  0
   -3.9730   15.9090    1.4230 N   0  0  0  0  0  0  0  0  0  0  0  0
   -0.6100   14.4840    1.2960 C   0  0  0  0  0  0  0  0  0  0  0  0
   -1.9140   14.8920    1.8100 N   0  0  0  0  0  0  0  0  0  0  0  0
  1  2  1  0
  2  3  1  0
  2  4  1  0
  2  5  1  0
  5  6  1  0
  4  7  1  0
  6  8  1  0
  6  9  1  0
  6 10  1  0
  7 11  1  0
 12 11  1  1
 12 13  1  0
 12 14  1  0
 15 13  1  6
 16 14  1  6
 15 16  1  0
 15 17  1  0
 16 18  1  0
 18 19  1  1
 17 20  1  0
 18 21  1  0
 20 21  1  0
M  CHG  2   3  -1   9  -1
M  END
>  <%Rank>  (638) 
48.625954

>  <N_hits>  (638) 
2

>  <submitter_name>  (638) 
nan

>  <original SMILES>  (638) 
nan

>  <∆G_unbound>  (638) 
2.473553

>  <∆G_bound>  (638) 
-5.802574

>  <regarded>  (638) 
mArh-5cms_D_3_D_α,5CMS_0_B_δ

>  <ref_pdb>  (638) 
nan

>  <smiles>  (638) 
NC1NCNC2NC(CCO[PH]([O-])(O)O[PH]([O-])(O)O)NC12

>  <submitter_email>  (638) 
nan

>  <disregarded>  (638) 


>  <LE>  (638) 
-0.394101

>  <submitter_institution>  (638) 
nan

>  <ref_mols>  (638) 
mArh-5cms_D_3_D,5CMS_0_B

>  <N_constrained_atoms>  (638) 
19.0

>  <ref_url>  (638) 
nan

>  <method>  (638) 
nan

>  <comRMSD>  (638) 
0.785853

>  <N_unconstrained_atoms>  (638) 
2.0

>  <∆∆G>  (638) 
-8.276127

>  <runtime>  (638) 
32.06098

>  <generation_date>  (638) 
nan

$$$$
5CMS_0_I_δ-mArh-EU0087_0_A_α
     RDKit          3D

 13 14  0  0  0  0  0  0  0  0999 V2000
   -3.8830   14.8470    1.5700 N   0  0  0  0  0  0  0  0  0  0  0  0
   -5.0780   14.7020    0.9090 C   0  0  0  0  0  0  0  0  0  0  0  0
   -6.2240   14.3190    1.7920 C   0  0  0  0  0  0  0  0  0  0  0  0
   -2.7970   15.5700    0.9780 C   0  0  2  0  0  0  0  0  0  0  0  0
   -5.2330   14.8660   -0.2960 O   0  0  0  0  0  0  0  0  0  0  0  0
   -2.6340   15.4630   -0.5420 C   0  0  1  0  0  0  0  0  0  0  0  0
   -1.6160   14.9940    1.5800 N   0  0  0  0  0  0  0  0  0  0  0  0
   -1.5760   14.4360   -0.8740 C   0  0  1  0  0  0  0  0  0  0  0  0
   -3.7130   14.8740   -1.3350 N   0  0  0  0  0  0  0  0  0  0  0  0
   -0.3770   15.3650    0.8910 C   0  0  0  0  0  0  0  0  0  0  0  0
   -1.6370   14.4510   -2.3200 N   0  0  0  0  0  0  0  0  0  0  0  0
   -3.0430   14.7420   -2.6150 C   0  0  0  0  0  0  0  0  0  0  0  0
   -0.2770   14.8920   -0.4650 N   0  0  0  0  0  0  0  0  0  0  0  0
  1  2  1  0
  2  3  1  0
  4  1  1  1
  2  5  2  0
  4  6  1  0
  4  7  1  0
  6  8  1  0
  6  9  1  6
  7 10  1  0
  8 11  1  6
  9 12  1  0
 11 12  1  0
  8 13  1  0
 10 13  1  0
M  END
>  <%Rank>  (639) 
48.70229

>  <N_hits>  (639) 
2

>  <submitter_name>  (639) 
nan

>  <original SMILES>  (639) 
nan

>  <∆G_unbound>  (639) 
0.908922

>  <∆G_bound>  (639) 
-1.101134

>  <regarded>  (639) 
5CMS_0_I_δ,mArh-EU0087_0_A_α

>  <ref_pdb>  (639) 
nan

>  <smiles>  (639) 
CC(=O)NC1NCNC2NCNC21

>  <submitter_email>  (639) 
nan

>  <disregarded>  (639) 


>  <LE>  (639) 
-0.15462

>  <submitter_institution>  (639) 
nan

>  <ref_mols>  (639) 
5CMS_0_I,mArh-EU0087_0_A

>  <N_constrained_atoms>  (639) 
13.0

>  <ref_url>  (639) 
nan

>  <method>  (639) 
nan

>  <comRMSD>  (639) 
0.581

>  <N_unconstrained_atoms>  (639) 
0.0

>  <∆∆G>  (639) 
-2.010056

>  <runtime>  (639) 
29.53889

>  <generation_date>  (639) 
nan

$$$$
mArh-EU0238_0_A_α-5CMS_0_F_β
     RDKit          3D

 23 23  0  0  0  0  0  0  0  0999 V2000
   -6.3240   14.0780    1.1170 C   0  0  0  0  0  0  0  0  0  0  0  0
   -7.5180   14.3450    0.3430 N   0  0  0  0  0  0  0  0  0  0  0  0
   -5.0830   14.5660    0.4720 C   0  0  0  0  0  0  0  0  0  0  0  0
   -5.0000   14.6630   -0.8160 N   0  0  0  0  0  0  0  0  0  0  0  0
   -4.0100   14.9280    1.3100 N   0  0  0  0  0  0  0  0  0  0  0  0
   -3.8540   15.1350   -1.5430 C   0  0  0  0  0  0  0  0  0  0  0  0
   -2.6290   14.7560    0.9630 C   0  0  0  0  0  0  0  0  0  0  0  0
   -3.9570   14.9860   -3.0460 C   0  0  0  0  0  0  0  0  0  0  0  0
   -1.8250   14.7460   -0.5370 S   0  0  0  0  0  0  0  0  0  0  0  0
   -1.6380   14.5630    1.7970 N   0  0  0  0  0  0  0  0  0  0  0  0
   -2.6470   15.3260   -3.7650 C   0  0  0  0  0  0  0  0  0  0  0  0
   -0.4360   14.4360    1.3630 C   0  0  0  0  0  0  0  0  0  0  0  0
   -0.2340   14.5050    0.0110 C   0  0  0  0  0  0  0  0  0  0  0  0
   -2.8480   16.2740   -4.9480 C   0  0  0  0  0  0  0  0  0  0  0  0
   -2.2580   17.5750   -4.8550 O   0  0  0  0  0  0  0  0  0  0  0  0
   -1.7970   18.0670   -6.2550 P   0  0  0  0  0  0  0  0  0  0  0  0
   -1.3590   19.6090   -6.2720 O   0  0  0  0  0  0  0  0  0  0  0  0
   -0.5280   16.9720   -5.9870 O   0  0  0  0  0  0  0  0  0  0  0  0
   -1.3800   18.0860   -7.6950 O   0  0  0  0  0  0  0  0  0  0  0  0
   -0.6630   20.1450   -7.7600 P   0  0  0  0  0  0  0  0  0  0  0  0
   -1.6600   20.6530   -8.8950 O   0  0  0  0  0  0  0  0  0  0  0  0
   -0.4530   21.5440   -7.1600 O   0  0  0  0  0  0  0  0  0  0  0  0
   -0.4000   18.7170   -8.3040 O   0  0  0  0  0  0  0  0  0  0  0  0
  1  2  1  0
  1  3  1  0
  3  4  2  3
  3  5  1  0
  4  6  1  0
  5  7  1  0
  6  8  1  0
  7  9  1  0
  7 10  2  0
  8 11  1  0
 10 12  1  0
  9 13  1  0
 12 13  2  0
 11 14  1  0
 14 15  1  0
 15 16  1  0
 16 17  1  0
 16 18  1  0
 16 19  1  0
 17 20  1  0
 20 21  1  0
 20 22  1  0
 20 23  1  0
M  CHG  2  19  -1  22  -1
M  END
>  <%Rank>  (640) 
48.778626

>  <N_hits>  (640) 
2

>  <submitter_name>  (640) 
nan

>  <original SMILES>  (640) 
nan

>  <∆G_unbound>  (640) 
1.202779

>  <∆G_bound>  (640) 
-7.235804

>  <regarded>  (640) 
mArh-EU0238_0_A_α,5CMS_0_F_β

>  <ref_pdb>  (640) 
nan

>  <smiles>  (640) 
NCC(=NCCCCO[PH]([O-])(O)O[PH]([O-])(O)O)Nc1nccs1

>  <submitter_email>  (640) 
nan

>  <disregarded>  (640) 


>  <LE>  (640) 
-0.366895

>  <submitter_institution>  (640) 
nan

>  <ref_mols>  (640) 
mArh-EU0238_0_A,5CMS_0_F

>  <N_constrained_atoms>  (640) 
19.0

>  <ref_url>  (640) 
nan

>  <method>  (640) 
nan

>  <comRMSD>  (640) 
0.721764

>  <N_unconstrained_atoms>  (640) 
4.0

>  <∆∆G>  (640) 
-8.438582

>  <runtime>  (640) 
35.576626

>  <generation_date>  (640) 
nan

$$$$
mArh-5cms_O_14_O_α-mArh-5cms_D_3_D_γ
     RDKit          3D

 26 28  0  0  0  0  0  0  0  0999 V2000
    0.8620   22.7990   -9.6960 C   0  0  0  0  0  0  0  0  0  0  0  0
   -0.6490   22.8690   -9.7750 C   0  0  2  0  0  0  0  0  0  0  0  0
   -1.2230   21.8020  -10.5320 O   0  0  0  0  0  0  0  0  0  0  0  0
   -1.2130   24.1530  -10.3500 C   0  0  1  0  0  0  0  0  0  0  0  0
   -0.3500   24.8040  -11.2840 O   0  0  0  0  0  0  0  0  0  0  0  0
   -2.5730   22.1880  -10.7290 C   0  0  2  0  0  0  0  0  0  0  0  0
   -2.4910   23.6850  -11.0740 C   0  0  1  0  0  0  0  0  0  0  0  0
   -3.3070   21.9620   -9.4960 O   0  0  0  0  0  0  0  0  0  0  0  0
   -3.6710   24.3890  -10.7100 O   0  0  0  0  0  0  0  0  0  0  0  0
   -2.4440   21.6040   -8.3850 C   0  0  0  0  0  0  0  0  0  0  0  0
   -3.2440   20.9700   -7.2260 C   0  0  0  0  0  0  0  0  0  0  0  0
   -2.3410   20.2060   -6.2400 C   0  0  0  0  0  0  0  0  0  0  0  0
   -2.2180   18.6840   -6.4590 C   0  0  0  0  0  0  0  0  0  0  0  0
   -1.5790   17.8620   -5.3170 C   0  0  0  0  0  0  0  0  0  0  0  0
   -2.2250   16.5160   -4.8950 C   0  0  0  0  0  0  0  0  0  0  0  0
   -2.0110   16.1220   -3.4140 C   0  0  0  0  0  0  0  0  0  0  0  0
   -2.7090   14.9080   -2.7840 C   0  0  1  0  0  0  0  0  0  0  0  0
   -1.6660   14.1770   -2.1280 N   0  0  0  0  0  0  0  0  0  0  0  0
   -3.6010   15.2110   -1.6500 N   0  0  0  0  0  0  0  0  0  0  0  0
   -1.3110   15.0680   -1.0440 C   0  0  1  0  0  0  0  0  0  0  0  0
   -2.6740   15.5500   -0.5330 C   0  0  2  0  0  0  0  0  0  0  0  0
   -0.5130   14.3160   -0.1240 N   0  0  0  0  0  0  0  0  0  0  0  0
   -2.9810   14.9280    0.8460 C   0  0  2  0  0  0  0  0  0  0  0  0
   -3.9110   15.7040    1.6590 N   0  0  0  0  0  0  0  0  0  0  0  0
   -0.5290   14.9830    1.1410 C   0  0  0  0  0  0  0  0  0  0  0  0
   -1.8490   14.7970    1.7330 N   0  0  0  0  0  0  0  0  0  0  0  0
  2  1  1  6
  2  3  1  0
  2  4  1  0
  4  5  1  6
  3  6  1  0
  4  7  1  0
  6  7  1  0
  6  8  1  1
  7  9  1  1
  8 10  1  0
 10 11  1  0
 11 12  1  0
 12 13  1  0
 13 14  1  0
 14 15  1  0
 15 16  1  0
 17 16  1  1
 17 18  1  0
 17 19  1  0
 20 18  1  6
 21 19  1  6
 20 21  1  0
 20 22  1  0
 21 23  1  0
 23 24  1  1
 22 25  1  0
 23 26  1  0
 25 26  1  0
M  END
>  <%Rank>  (641) 
48.854962

>  <N_hits>  (641) 
2

>  <submitter_name>  (641) 
nan

>  <original SMILES>  (641) 
nan

>  <∆G_unbound>  (641) 
0.40203

>  <∆G_bound>  (641) 
-8.716291

>  <regarded>  (641) 
mArh-5cms_O_14_O_α,mArh-5cms_D_3_D_γ

>  <ref_pdb>  (641) 
nan

>  <smiles>  (641) 
CC1OC(OCCCCCCCC2NC3NCNC(N)C3N2)C(O)C1O

>  <submitter_email>  (641) 
nan

>  <disregarded>  (641) 


>  <LE>  (641) 
-0.350705

>  <submitter_institution>  (641) 
nan

>  <ref_mols>  (641) 
mArh-5cms_O_14_O,mArh-5cms_D_3_D

>  <N_constrained_atoms>  (641) 
19.0

>  <ref_url>  (641) 
nan

>  <method>  (641) 
nan

>  <comRMSD>  (641) 
0.635662

>  <N_unconstrained_atoms>  (641) 
7.0

>  <∆∆G>  (641) 
-9.11832

>  <runtime>  (641) 
58.975042

>  <generation_date>  (641) 
nan

$$$$
mArh-2fav_B_0_B_β-mArh-x0962_3_A_α
     RDKit          3D

 20 20  0  0  0  0  0  0  0  0999 V2000
   -1.0030   20.5490   -8.3380 O   0  0  0  0  0  0  0  0  0  0  0  0
   -0.0390   19.6290   -7.6150 P   0  0  0  0  0  0  0  0  0  0  0  0
   -1.1450   19.3170   -6.4620 O   0  0  0  0  0  0  0  0  0  0  0  0
    1.0710   20.8630   -7.4940 O   0  0  0  0  0  0  0  0  0  0  0  0
    0.1530   18.5550   -8.8260 O   0  0  0  0  0  0  0  0  0  0  0  0
   -1.1060   18.0110   -5.6810 P   0  0  0  0  0  0  0  0  0  0  0  0
   -0.9460   16.9180   -4.5880 O   0  0  0  0  0  0  0  0  0  0  0  0
   -1.5690   18.9540   -4.4190 O   0  0  0  0  0  0  0  0  0  0  0  0
   -2.3300   17.3300   -6.5560 O   0  0  0  0  0  0  0  0  0  0  0  0
   -0.9330   15.5480   -4.8270 C   0  0  0  0  0  0  0  0  0  0  0  0
    0.4400   15.0020   -4.9850 C   0  0  0  0  0  0  0  0  0  0  0  0
    0.5300   13.5020   -4.8920 C   0  0  0  0  0  0  0  0  0  0  0  0
    1.6320   12.9650   -5.7460 C   0  0  0  0  0  0  0  0  0  0  0  0
    1.2260   11.8820   -6.6180 C   0  0  0  0  0  0  0  0  0  0  0  0
    0.7580   10.9580   -7.1940 C   0  0  0  0  0  0  0  0  0  0  0  0
    0.0220    9.8230   -7.6390 C   0  0  0  0  0  0  0  0  0  0  0  0
    0.3420    8.8000   -8.4570 N   0  0  0  0  0  0  0  0  0  0  0  0
   -1.2650    9.5910   -7.2350 C   0  0  0  0  0  0  0  0  0  0  0  0
   -0.7150    7.9700   -8.5480 C   0  0  0  0  0  0  0  0  0  0  0  0
   -1.7130    8.4490   -7.8000 N   0  0  0  0  0  0  0  0  0  0  0  0
  1  2  1  0
  2  3  1  0
  2  4  1  0
  2  5  1  0
  3  6  1  0
  6  7  1  0
  6  8  1  0
  6  9  1  0
  7 10  1  0
 10 11  1  0
 11 12  1  0
 12 13  1  0
 13 14  1  0
 14 15  3  0
 15 16  1  0
 16 17  1  0
 16 18  2  0
 17 19  1  0
 18 20  1  0
 19 20  2  0
M  CHG  2   4  -1   8  -1
M  END
>  <%Rank>  (642) 
48.931298

>  <N_hits>  (642) 
2

>  <submitter_name>  (642) 
nan

>  <original SMILES>  (642) 
nan

>  <∆G_unbound>  (642) 
0.336207

>  <∆G_bound>  (642) 
-9.621892

>  <regarded>  (642) 
mArh-2fav_B_0_B_β,mArh-x0962_3_A_α

>  <ref_pdb>  (642) 
nan

>  <smiles>  (642) 
[O-][PH](O)(O)O[PH]([O-])(O)OCCCCC#Cc1cnc[nH]1

>  <submitter_email>  (642) 
nan

>  <disregarded>  (642) 


>  <LE>  (642) 
-0.497905

>  <submitter_institution>  (642) 
nan

>  <ref_mols>  (642) 
mArh-2fav_B_0_B,mArh-x0962_3_A

>  <N_constrained_atoms>  (642) 
16.0

>  <ref_url>  (642) 
nan

>  <method>  (642) 
nan

>  <comRMSD>  (642) 
0.705314

>  <N_unconstrained_atoms>  (642) 
4.0

>  <∆∆G>  (642) 
-9.958099

>  <runtime>  (642) 
35.36858

>  <generation_date>  (642) 
nan

$$$$
5CMS_0_H_β-5CB5_0_P_γ
     RDKit          3D

 16 16  0  0  0  0  0  0  0  0999 V2000
   -0.7310   21.0380   -7.5990 O   0  0  0  0  0  0  0  0  0  0  0  0
   -0.7200   19.4010   -7.8670 P   0  0  0  0  0  0  0  0  0  0  0  0
   -1.9660   18.4370   -7.3410 O   0  0  0  0  0  0  0  0  0  0  0  0
    0.0780   19.1570   -6.5950 O   0  0  0  0  0  0  0  0  0  0  0  0
    0.3050   18.7640   -8.8790 O   0  0  0  0  0  0  0  0  0  0  0  0
   -2.0320   17.6980   -5.9040 P   0  0  0  0  0  0  0  0  0  0  0  0
   -0.6650   16.9130   -5.9450 O   0  0  0  0  0  0  0  0  0  0  0  0
   -2.8070   16.1890   -5.8200 O   0  0  0  0  0  0  0  0  0  0  0  0
   -1.6850   18.5280   -4.5700 O   0  0  0  0  0  0  0  0  0  0  0  0
   -0.1190   15.9810   -5.0100 C   0  0  1  0  0  0  0  0  0  0  0  0
   -0.5890   16.1390   -3.7070 O   0  0  0  0  0  0  0  0  0  0  0  0
   -0.1710   14.5120   -5.3040 C   0  0  1  0  0  0  0  0  0  0  0  0
    1.0810   13.9700   -5.6620 O   0  0  0  0  0  0  0  0  0  0  0  0
   -1.3270   14.9950   -3.3590 C   0  0  0  0  0  0  0  0  0  0  0  0
   -0.4330   13.9100   -3.9300 C   0  0  1  0  0  0  0  0  0  0  0  0
   -1.0570   12.7090   -4.1000 O   0  0  0  0  0  0  0  0  0  0  0  0
  1  2  1  0
  2  3  1  0
  2  4  1  0
  2  5  1  0
  3  6  1  0
  6  7  1  0
  6  8  1  0
  6  9  1  0
 10  7  1  6
 10 11  1  0
 10 12  1  0
 12 13  1  1
 11 14  1  0
 12 15  1  0
 14 15  1  0
 15 16  1  6
M  CHG  2   4  -1   8  -1
M  END
>  <%Rank>  (643) 
49.007634

>  <N_hits>  (643) 
2

>  <submitter_name>  (643) 
nan

>  <original SMILES>  (643) 
nan

>  <∆G_unbound>  (643) 
1.160673

>  <∆G_bound>  (643) 
-5.950679

>  <regarded>  (643) 
5CMS_0_H_β,5CB5_0_P_γ

>  <ref_pdb>  (643) 
nan

>  <smiles>  (643) 
[O-][PH](O)(O)O[PH]([O-])(O)OC1OCC(O)C1O

>  <submitter_email>  (643) 
nan

>  <disregarded>  (643) 


>  <LE>  (643) 
-0.44446

>  <submitter_institution>  (643) 
nan

>  <ref_mols>  (643) 
5CMS_0_H,5CB5_0_P

>  <N_constrained_atoms>  (643) 
16.0

>  <ref_url>  (643) 
nan

>  <method>  (643) 
nan

>  <comRMSD>  (643) 
0.803875

>  <N_unconstrained_atoms>  (643) 
0.0

>  <∆∆G>  (643) 
-7.111352

>  <runtime>  (643) 
29.229107

>  <generation_date>  (643) 
nan

$$$$
6MEA_0_B_γ-5CMS_0_O_β
     RDKit          3D

 16 16  0  0  0  0  0  0  0  0999 V2000
   -1.7570   13.0890   -4.1330 O   0  0  0  0  0  0  0  0  0  0  0  0
   -0.4840   13.6200   -3.9560 C   0  0  2  0  0  0  0  0  0  0  0  0
   -0.3790   14.5680   -2.7630 C   0  0  0  0  0  0  0  0  0  0  0  0
   -0.0630   14.4700   -5.1190 C   0  0  2  0  0  0  0  0  0  0  0  0
    1.2910   14.2010   -5.3030 O   0  0  0  0  0  0  0  0  0  0  0  0
    0.2130   15.7330   -3.2930 O   0  0  0  0  0  0  0  0  0  0  0  0
   -0.3670   15.8050   -4.5450 C   0  0  1  0  0  0  0  0  0  0  0  0
   -0.0790   17.1090   -5.3250 C   0  0  0  0  0  0  0  0  0  0  0  0
   -1.5750   17.9740   -5.6880 P   0  0  0  0  0  0  0  0  0  0  0  0
   -1.1960   19.2210   -6.5080 O   0  0  0  0  0  0  0  0  0  0  0  0
   -2.5670   17.5140   -6.9820 O   0  0  0  0  0  0  0  0  0  0  0  0
   -2.1990   19.0330   -4.6780 O   0  0  0  0  0  0  0  0  0  0  0  0
   -0.0880   19.4660   -7.6170 P   0  0  0  0  0  0  0  0  0  0  0  0
   -0.9830   20.4860   -8.3350 O   0  0  0  0  0  0  0  0  0  0  0  0
    1.0760   20.6760   -7.4900 O   0  0  0  0  0  0  0  0  0  0  0  0
    0.0030   18.4480   -8.8900 O   0  0  0  0  0  0  0  0  0  0  0  0
  2  1  1  6
  2  3  1  0
  2  4  1  0
  4  5  1  1
  3  6  1  0
  4  7  1  0
  6  7  1  0
  7  8  1  6
  8  9  1  0
  9 10  1  0
  9 11  1  0
  9 12  1  0
 10 13  1  0
 13 14  1  0
 13 15  1  0
 13 16  1  0
M  CHG  2  11  -1  15  -1
M  END
>  <%Rank>  (644) 
49.083969

>  <N_hits>  (644) 
2

>  <submitter_name>  (644) 
nan

>  <original SMILES>  (644) 
nan

>  <∆G_unbound>  (644) 
0.683631

>  <∆G_bound>  (644) 
-7.219169

>  <regarded>  (644) 
6MEA_0_B_γ,5CMS_0_O_β

>  <ref_pdb>  (644) 
nan

>  <smiles>  (644) 
[O-][PH](O)(O)O[PH]([O-])(O)CC1OCC(O)C1O

>  <submitter_email>  (644) 
nan

>  <disregarded>  (644) 


>  <LE>  (644) 
-0.493925

>  <submitter_institution>  (644) 
nan

>  <ref_mols>  (644) 
6MEA_0_B,5CMS_0_O

>  <N_constrained_atoms>  (644) 
16.0

>  <ref_url>  (644) 
nan

>  <method>  (644) 
nan

>  <comRMSD>  (644) 
0.829266

>  <N_unconstrained_atoms>  (644) 
0.0

>  <∆∆G>  (644) 
-7.9028

>  <runtime>  (644) 
39.130836

>  <generation_date>  (644) 
nan

$$$$
2BFQ_1_A_β-mArh-5cms_F_6_F_α
     RDKit          3D

 17 17  0  0  0  0  0  0  0  0999 V2000
   -1.4480   21.8490   -8.7230 O   0  0  0  0  0  0  0  0  0  0  0  0
   -0.4650   20.6190   -8.0440 P   0  0  0  0  0  0  0  0  0  0  0  0
   -0.9750   20.0210   -6.5800 O   0  0  0  0  0  0  0  0  0  0  0  0
   -1.6650   21.8570  -10.1100 C   0  0  1  0  0  0  0  0  0  0  0  0
   -1.1650   19.4490   -8.6900 O   0  0  0  0  0  0  0  0  0  0  0  0
    0.3670   21.7490   -7.4510 O   0  0  0  0  0  0  0  0  0  0  0  0
   -2.9420   22.2020  -10.4650 O   0  0  0  0  0  0  0  0  0  0  0  0
   -0.8900   22.9850  -10.8670 C   0  0  2  0  0  0  0  0  0  0  0  0
   -1.2670   18.5570   -6.1260 P   0  0  0  0  0  0  0  0  0  0  0  0
    0.3320   23.1940  -10.2630 O   0  0  0  0  0  0  0  0  0  0  0  0
   -3.0860   23.5560  -10.3590 C   0  0  1  0  0  0  0  0  0  0  0  0
   -1.7710   24.2030  -10.7070 C   0  0  2  0  0  0  0  0  0  0  0  0
   -1.3640   17.1130   -5.6160 O   0  0  0  0  0  0  0  0  0  0  0  0
   -1.7070   19.1150   -4.6500 O   0  0  0  0  0  0  0  0  0  0  0  0
   -2.4930   18.3280   -7.1830 O   0  0  0  0  0  0  0  0  0  0  0  0
   -4.1430   24.0870  -11.0670 O   0  0  0  0  0  0  0  0  0  0  0  0
   -1.7880   24.8880  -11.9530 O   0  0  0  0  0  0  0  0  0  0  0  0
  1  2  1  0
  2  3  1  0
  4  1  1  1
  2  5  1  0
  2  6  1  0
  4  7  1  0
  4  8  1  0
  3  9  1  0
  8 10  1  1
  7 11  1  0
  8 12  1  0
 11 12  1  0
  9 13  1  0
  9 14  1  0
  9 15  1  0
 11 16  1  6
 12 17  1  6
M  CHG  2   5  -1  14  -1
M  END
>  <%Rank>  (645) 
49.160305

>  <N_hits>  (645) 
2

>  <submitter_name>  (645) 
nan

>  <original SMILES>  (645) 
nan

>  <∆G_unbound>  (645) 
0.972863

>  <∆G_bound>  (645) 
-4.61991

>  <regarded>  (645) 
2BFQ_1_A_β,mArh-5cms_F_6_F_α

>  <ref_pdb>  (645) 
nan

>  <smiles>  (645) 
[O-][PH](O)(O)O[PH]([O-])(O)OC1OC(O)C(O)C1O

>  <submitter_email>  (645) 
nan

>  <disregarded>  (645) 


>  <LE>  (645) 
-0.328987

>  <submitter_institution>  (645) 
nan

>  <ref_mols>  (645) 
2BFQ_1_A,mArh-5cms_F_6_F

>  <N_constrained_atoms>  (645) 
17.0

>  <ref_url>  (645) 
nan

>  <method>  (645) 
nan

>  <comRMSD>  (645) 
0.770034

>  <N_unconstrained_atoms>  (645) 
0.0

>  <∆∆G>  (645) 
-5.592773

>  <runtime>  (645) 
35.21574

>  <generation_date>  (645) 
nan

$$$$
2FAV_0_B_β-5CMS_0_H_α
     RDKit          3D

 17 17  0  0  0  0  0  0  0  0999 V2000
   -1.3300   21.5100   -8.4840 O   0  0  0  0  0  0  0  0  0  0  0  0
   -0.2920   20.2340   -7.9960 P   0  0  0  0  0  0  0  0  0  0  0  0
   -0.5500   19.6540   -6.4640 O   0  0  0  0  0  0  0  0  0  0  0  0
   -1.6260   21.6970   -9.8490 C   0  0  1  0  0  0  0  0  0  0  0  0
    0.6700   21.3090   -7.5060 O   0  0  0  0  0  0  0  0  0  0  0  0
   -1.1240   19.1250   -8.5810 O   0  0  0  0  0  0  0  0  0  0  0  0
   -2.9190   22.1480  -10.0750 O   0  0  0  0  0  0  0  0  0  0  0  0
   -0.7770   22.8390  -10.5060 C   0  0  2  0  0  0  0  0  0  0  0  0
   -0.9370   18.2180   -5.9890 P   0  0  0  0  0  0  0  0  0  0  0  0
    0.4190   22.9820   -9.8390 O   0  0  0  0  0  0  0  0  0  0  0  0
   -2.9190   23.3350  -10.7620 C   0  0  2  0  0  0  0  0  0  0  0  0
   -1.6660   24.0330  -10.3460 C   0  0  2  0  0  0  0  0  0  0  0  0
   -1.0880   16.7880   -5.4590 O   0  0  0  0  0  0  0  0  0  0  0  0
   -1.2740   18.7940   -4.4860 O   0  0  0  0  0  0  0  0  0  0  0  0
   -2.2450   18.0760   -6.9770 O   0  0  0  0  0  0  0  0  0  0  0  0
   -4.0460   24.1160  -10.5930 O   0  0  0  0  0  0  0  0  0  0  0  0
   -1.2060   24.9640  -11.3020 O   0  0  0  0  0  0  0  0  0  0  0  0
  1  2  1  0
  2  3  1  0
  4  1  1  1
  2  5  1  0
  2  6  1  0
  4  7  1  0
  4  8  1  0
  3  9  1  0
  8 10  1  1
  7 11  1  0
  8 12  1  0
 11 12  1  0
  9 13  1  0
  9 14  1  0
  9 15  1  0
 11 16  1  1
 12 17  1  6
M  CHG  2   5  -1  14  -1
M  END
>  <%Rank>  (646) 
49.236641

>  <N_hits>  (646) 
2

>  <submitter_name>  (646) 
nan

>  <original SMILES>  (646) 
nan

>  <∆G_unbound>  (646) 
0.972863

>  <∆G_bound>  (646) 
-4.345786

>  <regarded>  (646) 
2FAV_0_B_β,5CMS_0_H_α

>  <ref_pdb>  (646) 
nan

>  <smiles>  (646) 
[O-][PH](O)(O)O[PH]([O-])(O)OC1OC(O)C(O)C1O

>  <submitter_email>  (646) 
nan

>  <disregarded>  (646) 


>  <LE>  (646) 
-0.312862

>  <submitter_institution>  (646) 
nan

>  <ref_mols>  (646) 
2FAV_0_B,5CMS_0_H

>  <N_constrained_atoms>  (646) 
17.0

>  <ref_url>  (646) 
nan

>  <method>  (646) 
nan

>  <comRMSD>  (646) 
0.762362

>  <N_unconstrained_atoms>  (646) 
0.0

>  <∆∆G>  (646) 
-5.318649

>  <runtime>  (646) 
33.368706

>  <generation_date>  (646) 
nan

$$$$
mArh-x0228_0_B_β-5CMS_0_H_γ
     RDKit          3D

 24 25  0  0  0  0  0  0  0  0999 V2000
   -6.6920   25.3550  -13.9600 N   0  0  0  0  0  0  0  0  0  0  0  0
   -5.6700   25.1790  -13.0150 C   0  0  0  0  0  0  0  0  0  0  0  0
   -4.4440   25.8550  -13.1960 C   0  0  0  0  0  0  0  0  0  0  0  0
   -5.8810   24.3270  -11.8920 C   0  0  0  0  0  0  0  0  0  0  0  0
   -4.2860   26.6580  -14.3070 O   0  0  0  0  0  0  0  0  0  0  0  0
   -4.8700   24.1390  -10.9410 C   0  0  0  0  0  0  0  0  0  0  0  0
   -3.4880   25.6620  -12.2510 C   0  0  0  0  0  0  0  0  0  0  0  0
   -2.9600   26.7950  -14.8300 C   0  0  0  0  0  0  0  0  0  0  0  0
   -4.9140   23.2610   -9.6710 C   0  0  0  0  0  0  0  0  0  0  0  0
   -3.7440   24.8080  -11.1680 C   0  0  0  0  0  0  0  0  0  0  0  0
   -3.8340   22.1380   -9.5040 C   0  0  0  0  0  0  0  0  0  0  0  0
   -2.6710   22.3620   -8.4930 C   0  0  0  0  0  0  0  0  0  0  0  0
   -2.3470   21.1580   -7.5490 C   0  0  0  0  0  0  0  0  0  0  0  0
   -0.9730   20.4270   -7.6830 C   0  0  0  0  0  0  0  0  0  0  0  0
   -0.9660   18.8990   -7.3750 C   0  0  0  0  0  0  0  0  0  0  0  0
   -0.0200   18.3250   -6.2690 C   0  0  0  0  0  0  0  0  0  0  0  0
   -0.5400   17.1650   -5.3540 C   0  0  0  0  0  0  0  0  0  0  0  0
    0.4120   16.0610   -4.7870 C   0  0  1  0  0  0  0  0  0  0  0  0
    0.3940   16.0280   -3.3360 O   0  0  0  0  0  0  0  0  0  0  0  0
    0.1480   14.5860   -5.1550 C   0  0  1  0  0  0  0  0  0  0  0  0
    1.2640   13.7300   -4.9620 O   0  0  0  0  0  0  0  0  0  0  0  0
   -0.3520   14.8540   -2.9170 C   0  0  0  0  0  0  0  0  0  0  0  0
   -0.9590   14.2630   -4.1780 C   0  0  2  0  0  0  0  0  0  0  0  0
   -1.0890   12.8360   -4.1190 O   0  0  0  0  0  0  0  0  0  0  0  0
  1  2  1  0
  2  3  2  0
  2  4  1  0
  3  5  1  0
  4  6  2  0
  3  7  1  0
  5  8  1  0
  6  9  1  0
  6 10  1  0
  7 10  2  0
  9 11  1  0
 11 12  1  0
 12 13  1  0
 13 14  1  0
 14 15  1  0
 15 16  1  0
 16 17  1  0
 18 17  1  6
 18 19  1  0
 18 20  1  0
 20 21  1  1
 19 22  1  0
 20 23  1  0
 22 23  1  0
 23 24  1  1
M  END
>  <%Rank>  (647) 
49.312977

>  <N_hits>  (647) 
2

>  <submitter_name>  (647) 
nan

>  <original SMILES>  (647) 
nan

>  <∆G_unbound>  (647) 
-0.189084

>  <∆G_bound>  (647) 
-7.973791

>  <regarded>  (647) 
mArh-x0228_0_B_β,5CMS_0_H_γ

>  <ref_pdb>  (647) 
nan

>  <smiles>  (647) 
COc1ccc(CCCCCCCCC2OCC(O)C2O)cc1N

>  <submitter_email>  (647) 
nan

>  <disregarded>  (647) 


>  <LE>  (647) 
-0.324363

>  <submitter_institution>  (647) 
nan

>  <ref_mols>  (647) 
mArh-x0228_0_B,5CMS_0_H

>  <N_constrained_atoms>  (647) 
18.0

>  <ref_url>  (647) 
nan

>  <method>  (647) 
nan

>  <comRMSD>  (647) 
0.623028

>  <N_unconstrained_atoms>  (647) 
6.0

>  <∆∆G>  (647) 
-7.784706

>  <runtime>  (647) 
50.676337

>  <generation_date>  (647) 
nan

$$$$
5CB5_0_E_β-mArh-5cms_N_13_N_γ
     RDKit          3D

 16 16  0  0  0  0  0  0  0  0999 V2000
   -1.5300   20.8310   -8.4650 O   0  0  0  0  0  0  0  0  0  0  0  0
   -0.5640   19.6260   -7.8780 P   0  0  0  0  0  0  0  0  0  0  0  0
   -0.5720   19.3190   -6.2690 O   0  0  0  0  0  0  0  0  0  0  0  0
    0.5750   20.6180   -7.6660 O   0  0  0  0  0  0  0  0  0  0  0  0
    0.1920   18.6550   -8.8780 O   0  0  0  0  0  0  0  0  0  0  0  0
   -1.6170   18.1690   -5.8870 P   0  0  0  0  0  0  0  0  0  0  0  0
   -0.5640   17.0190   -6.1160 O   0  0  0  0  0  0  0  0  0  0  0  0
   -2.5880   17.4260   -7.0350 O   0  0  0  0  0  0  0  0  0  0  0  0
   -1.9850   17.7900   -4.4160 O   0  0  0  0  0  0  0  0  0  0  0  0
    0.1620   16.1460   -5.2530 C   0  0  1  0  0  0  0  0  0  0  0  0
    0.0330   16.4320   -3.8850 O   0  0  0  0  0  0  0  0  0  0  0  0
   -0.0650   14.6640   -5.3670 C   0  0  1  0  0  0  0  0  0  0  0  0
    0.6550   13.9680   -6.3500 O   0  0  0  0  0  0  0  0  0  0  0  0
   -0.0150   15.2060   -3.1690 C   0  0  0  0  0  0  0  0  0  0  0  0
    0.6750   14.2360   -4.1240 C   0  0  1  0  0  0  0  0  0  0  0  0
    0.4430   12.9020   -3.8990 O   0  0  0  0  0  0  0  0  0  0  0  0
  1  2  1  0
  2  3  1  0
  2  4  1  0
  2  5  1  0
  3  6  1  0
  6  7  1  0
  6  8  1  0
  6  9  1  0
 10  7  1  6
 10 11  1  0
 10 12  1  0
 12 13  1  6
 11 14  1  0
 12 15  1  0
 14 15  1  0
 15 16  1  1
M  CHG  2   4  -1   8  -1
M  END
>  <%Rank>  (648) 
49.389313

>  <N_hits>  (648) 
2

>  <submitter_name>  (648) 
nan

>  <original SMILES>  (648) 
nan

>  <∆G_unbound>  (648) 
1.160673

>  <∆G_bound>  (648) 
-5.467648

>  <regarded>  (648) 
5CB5_0_E_β,mArh-5cms_N_13_N_γ

>  <ref_pdb>  (648) 
nan

>  <smiles>  (648) 
[O-][PH](O)(O)O[PH]([O-])(O)OC1OCC(O)C1O

>  <submitter_email>  (648) 
nan

>  <disregarded>  (648) 


>  <LE>  (648) 
-0.41427

>  <submitter_institution>  (648) 
nan

>  <ref_mols>  (648) 
5CB5_0_E,mArh-5cms_N_13_N

>  <N_constrained_atoms>  (648) 
16.0

>  <ref_url>  (648) 
nan

>  <method>  (648) 
nan

>  <comRMSD>  (648) 
0.7913

>  <N_unconstrained_atoms>  (648) 
0.0

>  <∆∆G>  (648) 
-6.628322

>  <runtime>  (648) 
33.868444

>  <generation_date>  (648) 
nan

$$$$
5CB5_0_N_β-mArh-5cms_G_3_G_γ
     RDKit          3D

 21 22  0  0  0  0  0  0  0  0999 V2000
   -1.4340   20.6560   -9.0450 O   0  0  0  0  0  0  0  0  0  0  0  0
   -0.8690   19.8970   -7.8560 P   0  0  0  0  0  0  0  0  0  0  0  0
   -0.5600   19.0200   -6.6610 O   0  0  0  0  0  0  0  0  0  0  0  0
    0.2640   21.0100   -7.5780 O   0  0  0  0  0  0  0  0  0  0  0  0
   -0.3610   18.6210   -8.7990 O   0  0  0  0  0  0  0  0  0  0  0  0
   -1.4830   18.1650   -5.7870 P   0  0  0  0  0  0  0  0  0  0  0  0
   -2.2400   17.2300   -4.8370 O   0  0  0  0  0  0  0  0  0  0  0  0
   -2.3940   17.6110   -7.0240 O   0  0  0  0  0  0  0  0  0  0  0  0
   -2.1560   19.4340   -5.0500 O   0  0  0  0  0  0  0  0  0  0  0  0
   -1.5300   16.4820   -3.8820 C   0  0  0  0  0  0  0  0  0  0  0  0
   -2.4730   15.9720   -2.8380 C   0  0  0  0  0  0  0  0  0  0  0  0
   -2.0610   14.7110   -2.2190 N   0  0  0  0  0  0  0  0  0  0  0  0
   -1.6470   15.0590   -0.8880 C   0  0  1  0  0  0  0  0  0  0  0  0
   -3.3290   14.0330   -2.0720 C   0  0  0  0  0  0  0  0  0  0  0  0
   -2.6860   14.3050   -0.0370 C   0  0  2  0  0  0  0  0  0  0  0  0
   -3.8430   14.5600   -0.8050 N   0  0  0  0  0  0  0  0  0  0  0  0
   -0.3600   14.5450   -0.4720 N   0  0  0  0  0  0  0  0  0  0  0  0
   -0.2800   14.8650    0.9440 C   0  0  0  0  0  0  0  0  0  0  0  0
   -2.6510   14.9000    1.3380 C   0  0  2  0  0  0  0  0  0  0  0  0
   -3.8050   15.7930    1.4700 N   0  0  0  0  0  0  0  0  0  0  0  0
   -1.4140   15.6360    1.3330 N   0  0  0  0  0  0  0  0  0  0  0  0
  1  2  1  0
  2  3  1  0
  2  4  1  0
  2  5  1  0
  3  6  1  0
  6  7  1  0
  6  8  1  0
  6  9  1  0
  7 10  1  0
 10 11  1  0
 11 12  1  0
 12 13  1  0
 12 14  1  0
 13 15  1  0
 14 16  1  0
 15 16  1  6
 13 17  1  1
 17 18  1  0
 15 19  1  0
 19 20  1  6
 18 21  1  0
 19 21  1  0
M  CHG  2   4  -1   8  -1
M  END
>  <%Rank>  (649) 
49.465649

>  <N_hits>  (649) 
2

>  <submitter_name>  (649) 
nan

>  <original SMILES>  (649) 
nan

>  <∆G_unbound>  (649) 
0.88229

>  <∆G_bound>  (649) 
-6.857588

>  <regarded>  (649) 
5CB5_0_N_β,mArh-5cms_G_3_G_γ

>  <ref_pdb>  (649) 
nan

>  <smiles>  (649) 
NC1NCNC2C1NCN2CCO[PH]([O-])(O)O[PH]([O-])(O)O

>  <submitter_email>  (649) 
nan

>  <disregarded>  (649) 


>  <LE>  (649) 
-0.368566

>  <submitter_institution>  (649) 
nan

>  <ref_mols>  (649) 
5CB5_0_N,mArh-5cms_G_3_G

>  <N_constrained_atoms>  (649) 
19.0

>  <ref_url>  (649) 
nan

>  <method>  (649) 
nan

>  <comRMSD>  (649) 
0.781716

>  <N_unconstrained_atoms>  (649) 
2.0

>  <∆∆G>  (649) 
-7.739878

>  <runtime>  (649) 
31.353042

>  <generation_date>  (649) 
nan

$$$$
mArh-x0438_0_A_α-5CB5_0_B_β
     RDKit          3D

 26 27  0  0  0  0  0  0  0  0999 V2000
   -8.1820   15.6150    3.9200 C   0  0  0  0  0  0  0  0  0  0  0  0
   -9.2800   15.2930    2.5680 S   0  0  0  0  0  0  0  0  0  0  0  0
  -10.5610   14.7520    3.1430 O   0  0  0  0  0  0  0  0  0  0  0  0
   -8.6510   14.0590    1.4610 C   0  0  0  0  0  0  0  0  0  0  0  0
   -9.6140   16.5520    1.8560 O   0  0  0  0  0  0  0  0  0  0  0  0
   -7.3290   14.3960    0.8830 C   0  0  0  0  0  0  0  0  0  0  0  0
   -7.0180   14.6250   -0.4040 N   0  0  0  0  0  0  0  0  0  0  0  0
   -6.1860   14.5280    1.5700 N   0  0  0  0  0  0  0  0  0  0  0  0
   -5.1610   14.8280    0.7510 C   0  0  0  0  0  0  0  0  0  0  0  0
   -5.7020   14.8870   -0.5150 C   0  0  0  0  0  0  0  0  0  0  0  0
   -4.8510   15.1790   -1.5770 C   0  0  0  0  0  0  0  0  0  0  0  0
   -3.8140   15.0570    0.9520 C   0  0  0  0  0  0  0  0  0  0  0  0
   -3.4970   15.4050   -1.4190 C   0  0  0  0  0  0  0  0  0  0  0  0
   -2.9940   15.3430   -0.1330 C   0  0  0  0  0  0  0  0  0  0  0  0
   -2.6130   15.6950   -2.5780 C   0  0  0  0  0  0  0  0  0  0  0  0
   -3.2850   15.3920   -3.8940 C   0  0  0  0  0  0  0  0  0  0  0  0
   -2.7450   16.2940   -4.9660 C   0  0  0  0  0  0  0  0  0  0  0  0
   -2.3830   17.5700   -4.5900 O   0  0  0  0  0  0  0  0  0  0  0  0
   -1.5000   18.2020   -5.7650 P   0  0  0  0  0  0  0  0  0  0  0  0
   -1.5370   19.7100   -6.2790 O   0  0  0  0  0  0  0  0  0  0  0  0
   -0.2610   17.2220   -6.3320 O   0  0  0  0  0  0  0  0  0  0  0  0
   -2.4620   17.6720   -6.8240 O   0  0  0  0  0  0  0  0  0  0  0  0
   -0.4580   19.8840   -7.5120 P   0  0  0  0  0  0  0  0  0  0  0  0
   -0.7650   21.1290   -8.5240 O   0  0  0  0  0  0  0  0  0  0  0  0
   -1.2270   19.0350   -8.4300 O   0  0  0  0  0  0  0  0  0  0  0  0
    0.8120   18.8980   -7.6940 O   0  0  0  0  0  0  0  0  0  0  0  0
  2  1  1  0
  2  3  2  0
  2  4  1  0
  2  5  2  0
  4  6  1  0
  6  7  1  0
  6  8  2  0
  8  9  1  0
  7 10  1  0
  9 10  2  0
 10 11  1  0
  9 12  1  0
 11 13  2  0
 12 14  2  0
 13 14  1  0
 13 15  1  0
 15 16  1  0
 16 17  1  0
 17 18  1  0
 18 19  1  0
 19 20  1  0
 19 21  1  0
 19 22  1  0
 20 23  1  0
 23 24  1  0
 23 25  1  0
 23 26  1  0
M  CHG  2  22  -1  25  -1
M  END
>  <%Rank>  (650) 
49.541985

>  <N_hits>  (650) 
2

>  <submitter_name>  (650) 
nan

>  <original SMILES>  (650) 
nan

>  <∆G_unbound>  (650) 
0.495992

>  <∆G_bound>  (650) 
-8.933683

>  <regarded>  (650) 
mArh-x0438_0_A_α,5CB5_0_B_β

>  <ref_pdb>  (650) 
nan

>  <smiles>  (650) 
CS(=O)(=O)Cc1nc2ccc(CCCO[PH]([O-])(O)O[PH]([O-])(O)O)cc2[nH]1

>  <submitter_email>  (650) 
nan

>  <disregarded>  (650) 


>  <LE>  (650) 
-0.36268

>  <submitter_institution>  (650) 
nan

>  <ref_mols>  (650) 
mArh-x0438_0_A,5CB5_0_B

>  <N_constrained_atoms>  (650) 
23.0

>  <ref_url>  (650) 
nan

>  <method>  (650) 
nan

>  <comRMSD>  (650) 
0.838275

>  <N_unconstrained_atoms>  (650) 
3.0

>  <∆∆G>  (650) 
-9.429676

>  <runtime>  (650) 
48.051651

>  <generation_date>  (650) 
nan

$$$$
5CB5_0_R_β-5CB5_0_C_α
     RDKit          3D

 17 17  0  0  0  0  0  0  0  0999 V2000
   -1.8040   21.3770   -8.8930 O   0  0  0  0  0  0  0  0  0  0  0  0
   -0.8280   20.3550   -7.9400 P   0  0  0  0  0  0  0  0  0  0  0  0
   -1.4820   19.7200   -6.5900 O   0  0  0  0  0  0  0  0  0  0  0  0
   -3.1750   21.6770   -8.6060 C   0  0  1  0  0  0  0  0  0  0  0  0
   -0.3790   21.6100   -7.2270 O   0  0  0  0  0  0  0  0  0  0  0  0
   -1.1070   19.0790   -8.7160 O   0  0  0  0  0  0  0  0  0  0  0  0
   -3.6820   21.0730   -7.4990 O   0  0  0  0  0  0  0  0  0  0  0  0
   -3.4180   23.2080   -8.2710 C   0  0  1  0  0  0  0  0  0  0  0  0
   -1.2330   18.2900   -6.0910 P   0  0  0  0  0  0  0  0  0  0  0  0
   -4.2540   23.7400   -9.2550 O   0  0  0  0  0  0  0  0  0  0  0  0
   -4.7780   21.7830   -7.1040 C   0  0  2  0  0  0  0  0  0  0  0  0
   -4.2300   23.1460   -6.9540 C   0  0  2  0  0  0  0  0  0  0  0  0
   -0.8190   16.8740   -5.6770 O   0  0  0  0  0  0  0  0  0  0  0  0
   -2.5230   17.7410   -6.9430 O   0  0  0  0  0  0  0  0  0  0  0  0
   -1.5200   18.7310   -4.5390 O   0  0  0  0  0  0  0  0  0  0  0  0
   -5.4120   21.3980   -5.9350 O   0  0  0  0  0  0  0  0  0  0  0  0
   -5.2700   24.0970   -6.9670 O   0  0  0  0  0  0  0  0  0  0  0  0
  1  2  1  0
  2  3  1  0
  4  1  1  1
  2  5  1  0
  2  6  1  0
  4  7  1  0
  4  8  1  0
  3  9  1  0
  8 10  1  6
  7 11  1  0
  8 12  1  0
 11 12  1  0
  9 13  1  0
  9 14  1  0
  9 15  1  0
 11 16  1  1
 12 17  1  6
M  CHG  2   5  -1  14  -1
M  END
>  <%Rank>  (651) 
49.618321

>  <N_hits>  (651) 
2

>  <submitter_name>  (651) 
nan

>  <original SMILES>  (651) 
nan

>  <∆G_unbound>  (651) 
0.972863

>  <∆G_bound>  (651) 
-6.976698

>  <regarded>  (651) 
5CB5_0_R_β,5CB5_0_C_α

>  <ref_pdb>  (651) 
nan

>  <smiles>  (651) 
[O-][PH](O)(O)O[PH]([O-])(O)OC1OC(O)C(O)C1O

>  <submitter_email>  (651) 
nan

>  <disregarded>  (651) 


>  <LE>  (651) 
-0.467621

>  <submitter_institution>  (651) 
nan

>  <ref_mols>  (651) 
5CB5_0_R,5CB5_0_C

>  <N_constrained_atoms>  (651) 
17.0

>  <ref_url>  (651) 
nan

>  <method>  (651) 
nan

>  <comRMSD>  (651) 
0.842833

>  <N_unconstrained_atoms>  (651) 
0.0

>  <∆∆G>  (651) 
-7.949561

>  <runtime>  (651) 
35.602249

>  <generation_date>  (651) 
nan

$$$$
mArh-5cb5_J_2_J_α-mArh-x0849_0_A_α
     RDKit          3D

 25 27  0  0  0  0  0  0  0  0999 V2000
   -1.9750   21.6970   -8.4180 C   0  0  0  0  0  0  0  0  0  0  0  0
   -3.3420   22.0720   -8.9760 C   0  0  1  0  0  0  0  0  0  0  0  0
   -4.2780   21.1590   -8.4420 O   0  0  0  0  0  0  0  0  0  0  0  0
   -3.8520   23.4630   -8.5620 C   0  0  1  0  0  0  0  0  0  0  0  0
   -4.3870   24.1300   -9.7090 O   0  0  0  0  0  0  0  0  0  0  0  0
   -4.6120   21.7420   -7.2080 C   0  0  2  0  0  0  0  0  0  0  0  0
   -5.0310   23.1330   -7.6570 C   0  0  1  0  0  0  0  0  0  0  0  0
   -3.4350   21.7280   -6.3880 O   0  0  0  0  0  0  0  0  0  0  0  0
   -5.2510   24.0530   -6.5760 O   0  0  0  0  0  0  0  0  0  0  0  0
   -3.2480   20.4340   -5.8050 C   0  0  0  0  0  0  0  0  0  0  0  0
   -2.0010   19.5800   -6.2130 C   0  0  0  0  0  0  0  0  0  0  0  0
   -1.9980   18.0320   -5.8460 C   0  0  0  0  0  0  0  0  0  0  0  0
   -1.3580   17.6890   -4.4590 C   0  0  0  0  0  0  0  0  0  0  0  0
   -1.7530   16.3500   -3.6620 C   0  0  0  0  0  0  0  0  0  0  0  0
   -2.9440   16.3230   -2.7810 O   0  0  0  0  0  0  0  0  0  0  0  0
   -3.1360   15.8620   -1.4170 C   0  0  0  0  0  0  0  0  0  0  0  0
   -2.0600   15.4270   -0.5630 C   0  0  0  0  0  0  0  0  0  0  0  0
   -4.4130   15.8230   -0.8400 C   0  0  0  0  0  0  0  0  0  0  0  0
   -2.3590   15.0090    0.7750 C   0  0  0  0  0  0  0  0  0  0  0  0
   -4.5730   15.3950    0.4690 C   0  0  0  0  0  0  0  0  0  0  0  0
   -0.7070   15.3790   -0.9380 C   0  0  0  0  0  0  0  0  0  0  0  0
   -3.5810   15.0010    1.2600 N   0  0  0  0  0  0  0  0  0  0  0  0
   -1.4350   14.5980    1.6320 N   0  0  0  0  0  0  0  0  0  0  0  0
    0.2520   14.9410   -0.0310 C   0  0  0  0  0  0  0  0  0  0  0  0
   -0.1690   14.5680    1.2260 C   0  0  0  0  0  0  0  0  0  0  0  0
  2  1  1  1
  2  3  1  0
  2  4  1  0
  4  5  1  6
  3  6  1  0
  4  7  1  0
  6  7  1  0
  6  8  1  1
  7  9  1  1
  8 10  1  0
 10 11  1  0
 11 12  1  0
 12 13  1  0
 13 14  1  0
 14 15  1  0
 15 16  1  0
 16 17  1  0
 16 18  2  0
 17 19  2  0
 18 20  1  0
 17 21  1  0
 19 22  1  0
 20 22  2  0
 19 23  1  0
 21 24  2  0
 23 25  2  0
 24 25  1  0
M  END
>  <%Rank>  (652) 
49.694656

>  <N_hits>  (652) 
2

>  <submitter_name>  (652) 
nan

>  <original SMILES>  (652) 
nan

>  <∆G_unbound>  (652) 
0.006541

>  <∆G_bound>  (652) 
-11.523995

>  <regarded>  (652) 
mArh-5cb5_J_2_J_α,mArh-x0849_0_A_α

>  <ref_pdb>  (652) 
nan

>  <smiles>  (652) 
CC1OC(OCCCCCOc2ccnc3ncccc23)C(O)C1O

>  <submitter_email>  (652) 
nan

>  <disregarded>  (652) 


>  <LE>  (652) 
-0.461221

>  <submitter_institution>  (652) 
nan

>  <ref_mols>  (652) 
mArh-5cb5_J_2_J,mArh-x0849_0_A

>  <N_constrained_atoms>  (652) 
20.0

>  <ref_url>  (652) 
nan

>  <method>  (652) 
nan

>  <comRMSD>  (652) 
0.776419

>  <N_unconstrained_atoms>  (652) 
5.0

>  <∆∆G>  (652) 
-11.530535

>  <runtime>  (652) 
52.421745

>  <generation_date>  (652) 
nan

$$$$
mArh-5cb5_M_1_M_α-2FAV_0_B_β
     RDKit          3D

 20 20  0  0  0  0  0  0  0  0999 V2000
   -1.7470   21.2910   -8.6560 C   0  0  0  0  0  0  0  0  0  0  0  0
   -0.7960   20.3140   -7.5870 P   0  0  0  0  0  0  0  0  0  0  0  0
   -1.5940   19.4930   -6.3600 O   0  0  0  0  0  0  0  0  0  0  0  0
   -3.2230   21.7440   -8.5160 C   0  0  2  0  0  0  0  0  0  0  0  0
    0.8530   20.5580   -7.5560 O   0  0  0  0  0  0  0  0  0  0  0  0
   -0.5360   19.0160   -8.3670 O   0  0  0  0  0  0  0  0  0  0  0  0
   -3.4500   23.2350   -8.3380 C   0  0  1  0  0  0  0  0  0  0  0  0
   -3.7810   21.1500   -7.4020 O   0  0  0  0  0  0  0  0  0  0  0  0
   -4.1880   23.7770   -9.4240 O   0  0  0  0  0  0  0  0  0  0  0  0
   -1.2900   18.0930   -5.8490 P   0  0  0  0  0  0  0  0  0  0  0  0
   -4.4170   23.3170   -7.1530 C   0  0  2  0  0  0  0  0  0  0  0  0
   -4.8960   21.9060   -7.1390 C   0  0  2  0  0  0  0  0  0  0  0  0
   -5.5240   24.1640   -7.4110 O   0  0  0  0  0  0  0  0  0  0  0  0
   -5.4200   21.5280   -5.8950 O   0  0  0  0  0  0  0  0  0  0  0  0
    0.2250   17.8480   -6.3630 O   0  0  0  0  0  0  0  0  0  0  0  0
   -1.5510   18.7080   -4.3570 O   0  0  0  0  0  0  0  0  0  0  0  0
   -2.5510   17.5000   -6.7430 O   0  0  0  0  0  0  0  0  0  0  0  0
   -6.4850   23.7910   -8.3570 C   0  0  0  0  0  0  0  0  0  0  0  0
   -7.2060   24.7190   -9.2710 C   0  0  0  0  0  0  0  0  0  0  0  0
   -6.7240   22.5650   -8.4050 O   0  0  0  0  0  0  0  0  0  0  0  0
  1  2  1  0
  2  3  1  0
  4  1  1  1
  2  5  1  0
  2  6  1  0
  4  7  1  0
  4  8  1  0
  7  9  1  6
  3 10  1  0
  7 11  1  0
  8 12  1  0
 11 12  1  0
 11 13  1  6
 12 14  1  1
 10 15  1  0
 10 16  1  0
 10 17  1  0
 13 18  1  0
 18 19  1  0
 18 20  2  0
M  CHG  2   5  -1  16  -1
M  END
>  <%Rank>  (653) 
49.770992

>  <N_hits>  (653) 
2

>  <submitter_name>  (653) 
nan

>  <original SMILES>  (653) 
nan

>  <∆G_unbound>  (653) 
2.722041

>  <∆G_bound>  (653) 
-6.470913

>  <regarded>  (653) 
mArh-5cb5_M_1_M_α,2FAV_0_B_β

>  <ref_pdb>  (653) 
nan

>  <smiles>  (653) 
CC(=O)OC1C(O)OC(C[PH]([O-])(O)O[PH]([O-])(O)O)C1O

>  <submitter_email>  (653) 
nan

>  <disregarded>  (653) 


>  <LE>  (653) 
-0.459648

>  <submitter_institution>  (653) 
nan

>  <ref_mols>  (653) 
mArh-5cb5_M_1_M,2FAV_0_B

>  <N_constrained_atoms>  (653) 
20.0

>  <ref_url>  (653) 
nan

>  <method>  (653) 
nan

>  <comRMSD>  (653) 
0.900817

>  <N_unconstrained_atoms>  (653) 
0.0

>  <∆∆G>  (653) 
-9.192954

>  <runtime>  (653) 
37.600839

>  <generation_date>  (653) 
nan

$$$$
5CB5_0_E_β-5CMS_0_O_γ
     RDKit          3D

 16 16  0  0  0  0  0  0  0  0999 V2000
   -1.4440   20.8700   -8.5100 O   0  0  0  0  0  0  0  0  0  0  0  0
   -0.5500   19.6150   -7.8980 P   0  0  0  0  0  0  0  0  0  0  0  0
   -0.5770   19.2710   -6.2840 O   0  0  0  0  0  0  0  0  0  0  0  0
    0.6210   20.5690   -7.6760 O   0  0  0  0  0  0  0  0  0  0  0  0
    0.1740   18.6170   -8.8920 O   0  0  0  0  0  0  0  0  0  0  0  0
   -1.6240   18.1140   -5.8780 P   0  0  0  0  0  0  0  0  0  0  0  0
   -0.5790   16.9220   -5.9890 O   0  0  0  0  0  0  0  0  0  0  0  0
   -2.5750   17.3180   -7.0080 O   0  0  0  0  0  0  0  0  0  0  0  0
   -2.0320   17.8260   -4.4000 O   0  0  0  0  0  0  0  0  0  0  0  0
    0.0620   16.0310   -5.0520 C   0  0  1  0  0  0  0  0  0  0  0  0
   -0.3120   16.1770   -3.7140 O   0  0  0  0  0  0  0  0  0  0  0  0
    0.0320   14.5480   -5.3400 C   0  0  1  0  0  0  0  0  0  0  0  0
    1.2970   13.9970   -5.6430 O   0  0  0  0  0  0  0  0  0  0  0  0
   -1.0760   15.0470   -3.3610 C   0  0  0  0  0  0  0  0  0  0  0  0
   -0.2690   13.9220   -3.9840 C   0  0  1  0  0  0  0  0  0  0  0  0
   -0.9820   12.7670   -4.1920 O   0  0  0  0  0  0  0  0  0  0  0  0
  1  2  1  0
  2  3  1  0
  2  4  1  0
  2  5  1  0
  3  6  1  0
  6  7  1  0
  6  8  1  0
  6  9  1  0
 10  7  1  6
 10 11  1  0
 10 12  1  0
 12 13  1  1
 11 14  1  0
 12 15  1  0
 14 15  1  0
 15 16  1  6
M  CHG  2   4  -1   8  -1
M  END
>  <%Rank>  (654) 
49.847328

>  <N_hits>  (654) 
2

>  <submitter_name>  (654) 
nan

>  <original SMILES>  (654) 
nan

>  <∆G_unbound>  (654) 
1.160673

>  <∆G_bound>  (654) 
-5.491661

>  <regarded>  (654) 
5CB5_0_E_β,5CMS_0_O_γ

>  <ref_pdb>  (654) 
nan

>  <smiles>  (654) 
[O-][PH](O)(O)O[PH]([O-])(O)OC1OCC(O)C1O

>  <submitter_email>  (654) 
nan

>  <disregarded>  (654) 


>  <LE>  (654) 
-0.415771

>  <submitter_institution>  (654) 
nan

>  <ref_mols>  (654) 
5CB5_0_E,5CMS_0_O

>  <N_constrained_atoms>  (654) 
16.0

>  <ref_url>  (654) 
nan

>  <method>  (654) 
nan

>  <comRMSD>  (654) 
0.796907

>  <N_unconstrained_atoms>  (654) 
0.0

>  <∆∆G>  (654) 
-6.652334

>  <runtime>  (654) 
28.662072

>  <generation_date>  (654) 
nan

$$$$
5CMS_0_P_β-6MEA_0_A_δ
     RDKit          3D

 21 22  0  0  0  0  0  0  0  0999 V2000
   -1.1610   21.2840   -7.4740 O   0  0  0  0  0  0  0  0  0  0  0  0
   -0.6730   19.8880   -7.8020 P   0  0  0  0  0  0  0  0  0  0  0  0
   -1.4030   19.3140   -6.3780 O   0  0  0  0  0  0  0  0  0  0  0  0
    0.8530   20.3520   -7.6650 O   0  0  0  0  0  0  0  0  0  0  0  0
   -0.3590   18.4950   -8.3560 O   0  0  0  0  0  0  0  0  0  0  0  0
   -1.6310   17.8150   -6.0740 P   0  0  0  0  0  0  0  0  0  0  0  0
    0.0100   17.5580   -6.5110 O   0  0  0  0  0  0  0  0  0  0  0  0
   -2.7790   17.7790   -7.1480 O   0  0  0  0  0  0  0  0  0  0  0  0
   -1.9190   17.7470   -4.5230 O   0  0  0  0  0  0  0  0  0  0  0  0
   -2.4000   16.4770   -4.2110 C   0  0  0  0  0  0  0  0  0  0  0  0
   -2.1380   16.0510   -2.7830 C   0  0  0  0  0  0  0  0  0  0  0  0
   -2.6420   14.6930   -2.4790 C   0  0  1  0  0  0  0  0  0  0  0  0
   -1.4900   13.9120   -2.0890 N   0  0  0  0  0  0  0  0  0  0  0  0
   -3.4200   14.8450   -1.2320 N   0  0  0  0  0  0  0  0  0  0  0  0
   -1.1970   14.4880   -0.8450 C   0  0  1  0  0  0  0  0  0  0  0  0
   -2.5720   14.3820   -0.1820 C   0  0  1  0  0  0  0  0  0  0  0  0
   -0.2920   13.7370   -0.0530 N   0  0  0  0  0  0  0  0  0  0  0  0
   -2.4760   15.2800    0.9640 C   0  0  1  0  0  0  0  0  0  0  0  0
   -3.7050   15.2830    1.7480 N   0  0  0  0  0  0  0  0  0  0  0  0
   -0.2210   14.3600    1.2570 C   0  0  0  0  0  0  0  0  0  0  0  0
   -1.4820   14.7390    1.8100 N   0  0  0  0  0  0  0  0  0  0  0  0
  1  2  1  0
  2  3  1  0
  2  4  1  0
  2  5  1  0
  3  6  1  0
  6  7  1  0
  6  8  1  0
  6  9  1  0
  9 10  1  0
 10 11  1  0
 12 11  1  1
 12 13  1  0
 12 14  1  0
 15 13  1  6
 16 14  1  6
 15 16  1  0
 15 17  1  0
 16 18  1  0
 18 19  1  1
 17 20  1  0
 18 21  1  0
 20 21  1  0
M  CHG  2   4  -1   8  -1
M  END
>  <%Rank>  (655) 
49.923664

>  <N_hits>  (655) 
2

>  <submitter_name>  (655) 
nan

>  <original SMILES>  (655) 
nan

>  <∆G_unbound>  (655) 
4.304915

>  <∆G_bound>  (655) 
-5.186256

>  <regarded>  (655) 
5CMS_0_P_β,6MEA_0_A_δ

>  <ref_pdb>  (655) 
nan

>  <smiles>  (655) 
NC1NCNC2NC(CCO[PH]([O-])(O)O[PH]([O-])(O)O)NC12

>  <submitter_email>  (655) 
nan

>  <disregarded>  (655) 


>  <LE>  (655) 
-0.451961

>  <submitter_institution>  (655) 
nan

>  <ref_mols>  (655) 
5CMS_0_P,6MEA_0_A

>  <N_constrained_atoms>  (655) 
19.0

>  <ref_url>  (655) 
nan

>  <method>  (655) 
nan

>  <comRMSD>  (655) 
0.82786

>  <N_unconstrained_atoms>  (655) 
2.0

>  <∆∆G>  (655) 
-9.491171

>  <runtime>  (655) 
32.176194

>  <generation_date>  (655) 
nan

$$$$
3Q6Z_0_A_β-mArh-5cms_F_6_F_β
     RDKit          3D

  9  8  0  0  0  0  0  0  0  0999 V2000
   -1.7530   20.4940   -7.8060 O   0  0  0  0  0  0  0  0  0  0  0  0
   -0.2680   19.8760   -7.9360 P   0  0  0  0  0  0  0  0  0  0  0  0
   -0.2180   18.9950   -6.7220 O   0  0  0  0  0  0  0  0  0  0  0  0
   -0.0030   18.5480   -8.8420 O   0  0  0  0  0  0  0  0  0  0  0  0
    1.0710   20.7960   -7.4550 O   0  0  0  0  0  0  0  0  0  0  0  0
   -1.4830   18.3010   -5.9570 P   0  0  0  0  0  0  0  0  0  0  0  0
   -0.6550   17.0900   -5.5490 O   0  0  0  0  0  0  0  0  0  0  0  0
   -1.7490   18.6760   -4.4100 O   0  0  0  0  0  0  0  0  0  0  0  0
   -2.6270   17.4320   -6.7880 O   0  0  0  0  0  0  0  0  0  0  0  0
  1  2  1  0
  2  3  1  0
  2  4  1  0
  2  5  1  0
  3  6  1  0
  6  7  1  0
  6  8  1  0
  6  9  1  0
M  CHG  2   4  -1   8  -1
M  END
>  <%Rank>  (656) 
50.0

>  <N_hits>  (656) 
2

>  <submitter_name>  (656) 
nan

>  <original SMILES>  (656) 
nan

>  <∆G_unbound>  (656) 
0.654534

>  <∆G_bound>  (656) 
-6.162371

>  <regarded>  (656) 
3Q6Z_0_A_β,mArh-5cms_F_6_F_β

>  <ref_pdb>  (656) 
nan

>  <smiles>  (656) 
[O-][PH](O)(O)O[PH]([O-])(O)O

>  <submitter_email>  (656) 
nan

>  <disregarded>  (656) 


>  <LE>  (656) 
-0.757434

>  <submitter_institution>  (656) 
nan

>  <ref_mols>  (656) 
3Q6Z_0_A,mArh-5cms_F_6_F

>  <N_constrained_atoms>  (656) 
9.0

>  <ref_url>  (656) 
nan

>  <method>  (656) 
nan

>  <comRMSD>  (656) 
0.768177

>  <N_unconstrained_atoms>  (656) 
0.0

>  <∆∆G>  (656) 
-6.816906

>  <runtime>  (656) 
23.062492

>  <generation_date>  (656) 
nan

$$$$
5CB5_0_K_β-5CB5_0_H_δ
     RDKit          3D

 21 22  0  0  0  0  0  0  0  0999 V2000
   -1.7740   20.9820   -7.4930 O   0  0  0  0  0  0  0  0  0  0  0  0
   -0.7290   19.9490   -7.8730 P   0  0  0  0  0  0  0  0  0  0  0  0
   -0.9000   19.2830   -6.3290 O   0  0  0  0  0  0  0  0  0  0  0  0
    0.4130   21.0730   -8.0460 O   0  0  0  0  0  0  0  0  0  0  0  0
    0.1190   18.7900   -8.4100 O   0  0  0  0  0  0  0  0  0  0  0  0
   -1.5030   17.8940   -6.0550 P   0  0  0  0  0  0  0  0  0  0  0  0
    0.0370   17.3420   -6.5740 O   0  0  0  0  0  0  0  0  0  0  0  0
   -2.6550   18.1400   -7.1200 O   0  0  0  0  0  0  0  0  0  0  0  0
   -1.6360   17.9280   -4.4660 O   0  0  0  0  0  0  0  0  0  0  0  0
   -0.5730   17.2910   -3.8330 C   0  0  0  0  0  0  0  0  0  0  0  0
   -0.8950   16.2460   -2.7360 C   0  0  0  0  0  0  0  0  0  0  0  0
   -2.2230   15.4920   -2.6540 C   0  0  1  0  0  0  0  0  0  0  0  0
   -1.7510   14.2290   -2.1410 N   0  0  0  0  0  0  0  0  0  0  0  0
   -3.0680   15.9280   -1.4840 N   0  0  0  0  0  0  0  0  0  0  0  0
   -1.3720   14.7280   -0.8750 C   0  0  1  0  0  0  0  0  0  0  0  0
   -2.7960   15.0100   -0.4120 C   0  0  1  0  0  0  0  0  0  0  0  0
   -0.7030   13.8410    0.0100 N   0  0  0  0  0  0  0  0  0  0  0  0
   -2.7460   15.5750    0.9640 C   0  0  1  0  0  0  0  0  0  0  0  0
   -4.0680   15.6890    1.5890 N   0  0  0  0  0  0  0  0  0  0  0  0
   -0.6410   14.5260    1.2870 C   0  0  0  0  0  0  0  0  0  0  0  0
   -1.9680   14.7100    1.7860 N   0  0  0  0  0  0  0  0  0  0  0  0
  1  2  1  0
  2  3  1  0
  2  4  1  0
  2  5  1  0
  3  6  1  0
  6  7  1  0
  6  8  1  0
  6  9  1  0
  9 10  1  0
 10 11  1  0
 12 11  1  1
 12 13  1  0
 12 14  1  0
 15 13  1  6
 16 14  1  6
 15 16  1  0
 15 17  1  0
 16 18  1  0
 18 19  1  1
 17 20  1  0
 18 21  1  0
 20 21  1  0
M  CHG  2   4  -1   8  -1
M  END
>  <%Rank>  (657) 
50.076336

>  <N_hits>  (657) 
2

>  <submitter_name>  (657) 
nan

>  <original SMILES>  (657) 
nan

>  <∆G_unbound>  (657) 
4.304915

>  <∆G_bound>  (657) 
-6.814647

>  <regarded>  (657) 
5CB5_0_K_β,5CB5_0_H_δ

>  <ref_pdb>  (657) 
nan

>  <smiles>  (657) 
NC1NCNC2NC(CCO[PH]([O-])(O)O[PH]([O-])(O)O)NC12

>  <submitter_email>  (657) 
nan

>  <disregarded>  (657) 


>  <LE>  (657) 
-0.529503

>  <submitter_institution>  (657) 
nan

>  <ref_mols>  (657) 
5CB5_0_K,5CB5_0_H

>  <N_constrained_atoms>  (657) 
19.0

>  <ref_url>  (657) 
nan

>  <method>  (657) 
nan

>  <comRMSD>  (657) 
0.867397

>  <N_unconstrained_atoms>  (657) 
2.0

>  <∆∆G>  (657) 
-11.119562

>  <runtime>  (657) 
31.513322

>  <generation_date>  (657) 
nan

$$$$
mArh-5fud_A_0_A_α-mArh-5cms_I_8_I_γ
     RDKit          3D

 23 24  0  0  0  0  0  0  0  0999 V2000
   -1.3020   20.2030   -6.2600 O   0  0  0  0  0  0  0  0  0  0  0  0
   -0.8470   20.5060   -7.5900 S   0  0  0  0  0  0  0  0  0  0  0  0
    0.3550   21.2420   -7.8790 O   0  0  0  0  0  0  0  0  0  0  0  0
   -0.7150   19.0930   -8.2680 O   0  0  0  0  0  0  0  0  0  0  0  0
   -2.2140   21.1140   -8.4450 C   0  0  0  0  0  0  0  0  0  0  0  0
   -2.4980   22.4920   -8.0370 C   0  0  0  0  0  0  0  0  0  0  0  0
   -0.1980   18.2320   -7.3050 C   0  0  0  0  0  0  0  0  0  0  0  0
   -0.2420   18.5990   -5.8650 C   0  0  0  0  0  0  0  0  0  0  0  0
   -3.9130   22.6230   -8.0470 N   0  0  0  0  0  0  0  0  0  0  0  0
    1.0770   18.0590   -5.3230 C   0  0  0  0  0  0  0  0  0  0  0  0
   -4.4710   22.7860   -9.3990 C   0  0  0  0  0  0  0  0  0  0  0  0
   -4.2040   23.7590   -7.2310 C   0  0  0  0  0  0  0  0  0  0  0  0
    0.9200   16.9860   -4.2520 C   0  0  0  0  0  0  0  0  0  0  0  0
   -5.9940   22.9600   -9.3730 C   0  0  0  0  0  0  0  0  0  0  0  0
   -5.6920   23.8420   -7.1540 C   0  0  0  0  0  0  0  0  0  0  0  0
   -6.3910   23.9370   -8.4120 O   0  0  0  0  0  0  0  0  0  0  0  0
   -0.1600   15.9210   -4.3710 C   0  0  2  0  0  0  0  0  0  0  0  0
   -0.3610   15.5070   -3.0040 O   0  0  0  0  0  0  0  0  0  0  0  0
    0.0140   14.5560   -5.0560 C   0  0  1  0  0  0  0  0  0  0  0  0
    1.1580   13.7630   -4.7840 O   0  0  0  0  0  0  0  0  0  0  0  0
   -1.0940   14.2650   -3.0400 C   0  0  0  0  0  0  0  0  0  0  0  0
   -1.2530   13.9190   -4.5130 C   0  0  2  0  0  0  0  0  0  0  0  0
   -1.2760   12.5080   -4.7350 O   0  0  0  0  0  0  0  0  0  0  0  0
  1  2  2  0
  2  3  2  0
  2  4  1  0
  2  5  1  0
  5  6  1  0
  4  7  1  0
  7  8  1  0
  6  9  1  0
  8 10  1  0
  9 11  1  0
  9 12  1  0
 10 13  1  0
 11 14  1  0
 12 15  1  0
 14 16  1  0
 15 16  1  0
 17 13  1  1
 17 18  1  0
 17 19  1  0
 19 20  1  1
 18 21  1  0
 19 22  1  0
 21 22  1  0
 22 23  1  1
M  END
>  <%Rank>  (658) 
50.152672

>  <N_hits>  (658) 
2

>  <submitter_name>  (658) 
nan

>  <original SMILES>  (658) 
nan

>  <∆G_unbound>  (658) 
0.734281

>  <∆G_bound>  (658) 
-6.772505

>  <regarded>  (658) 
mArh-5fud_A_0_A_α,mArh-5cms_I_8_I_γ

>  <ref_pdb>  (658) 
nan

>  <smiles>  (658) 
O=S(=O)(CCN1CCOCC1)OCCCCC1OCC(O)C1O

>  <submitter_email>  (658) 
nan

>  <disregarded>  (658) 


>  <LE>  (658) 
-0.326382

>  <submitter_institution>  (658) 
nan

>  <ref_mols>  (658) 
mArh-5fud_A_0_A,mArh-5cms_I_8_I

>  <N_constrained_atoms>  (658) 
20.0

>  <ref_url>  (658) 
nan

>  <method>  (658) 
nan

>  <comRMSD>  (658) 
0.763687

>  <N_unconstrained_atoms>  (658) 
3.0

>  <∆∆G>  (658) 
-7.506785

>  <runtime>  (658) 
50.634182

>  <generation_date>  (658) 
nan

$$$$
5CB5_0_A_δ-5CB5_0_I_β
     RDKit          3D

 21 22  0  0  0  0  0  0  0  0999 V2000
   -3.8600   15.9620    1.4180 N   0  0  0  0  0  0  0  0  0  0  0  0
   -2.8190   14.9960    1.1740 C   0  0  1  0  0  0  0  0  0  0  0  0
   -2.8960   14.3590   -0.1890 C   0  0  2  0  0  0  0  0  0  0  0  0
   -1.5380   15.6600    1.1500 N   0  0  0  0  0  0  0  0  0  0  0  0
   -1.5020   14.5490   -0.8030 C   0  0  2  0  0  0  0  0  0  0  0  0
   -3.7290   14.9210   -1.1910 N   0  0  0  0  0  0  0  0  0  0  0  0
   -0.4490   14.7360    1.1810 C   0  0  0  0  0  0  0  0  0  0  0  0
   -1.7970   13.9830   -2.0420 N   0  0  0  0  0  0  0  0  0  0  0  0
   -2.9150   14.7900   -2.4110 C   0  0  2  0  0  0  0  0  0  0  0  0
   -0.5470   13.8850    0.0130 N   0  0  0  0  0  0  0  0  0  0  0  0
   -2.2140   16.0490   -2.7380 C   0  0  0  0  0  0  0  0  0  0  0  0
   -2.3600   16.4600   -4.1820 C   0  0  0  0  0  0  0  0  0  0  0  0
   -2.0400   17.7800   -4.3900 O   0  0  0  0  0  0  0  0  0  0  0  0
   -1.9460   18.2430   -5.9240 P   0  0  0  0  0  0  0  0  0  0  0  0
   -1.2640   19.6220   -6.4930 O   0  0  0  0  0  0  0  0  0  0  0  0
   -0.6560   17.4760   -6.2030 O   0  0  0  0  0  0  0  0  0  0  0  0
   -2.7500   17.2860   -6.9990 O   0  0  0  0  0  0  0  0  0  0  0  0
   -0.5240   19.3360   -7.7500 P   0  0  0  0  0  0  0  0  0  0  0  0
   -1.2570   20.6010   -8.5490 O   0  0  0  0  0  0  0  0  0  0  0  0
    0.9220   19.6410   -7.0530 O   0  0  0  0  0  0  0  0  0  0  0  0
    0.2010   18.8390   -8.9640 O   0  0  0  0  0  0  0  0  0  0  0  0
  2  1  1  6
  2  3  1  0
  2  4  1  0
  3  5  1  0
  3  6  1  6
  4  7  1  0
  5  8  1  6
  6  9  1  0
  8  9  1  0
  5 10  1  0
  7 10  1  0
  9 11  1  1
 11 12  1  0
 12 13  1  0
 13 14  1  0
 14 15  1  0
 14 16  1  0
 14 17  1  0
 15 18  1  0
 18 19  1  0
 18 20  1  0
 18 21  1  0
M  CHG  2  17  -1  20  -1
M  END
>  <%Rank>  (659) 
50.229008

>  <N_hits>  (659) 
2

>  <submitter_name>  (659) 
nan

>  <original SMILES>  (659) 
nan

>  <∆G_unbound>  (659) 
2.344748

>  <∆G_bound>  (659) 
-5.982738

>  <regarded>  (659) 
5CB5_0_A_δ,5CB5_0_I_β

>  <ref_pdb>  (659) 
nan

>  <smiles>  (659) 
NC1NCNC2NC(CCO[PH]([O-])(O)O[PH]([O-])(O)O)NC12

>  <submitter_email>  (659) 
nan

>  <disregarded>  (659) 


>  <LE>  (659) 
-0.396547

>  <submitter_institution>  (659) 
nan

>  <ref_mols>  (659) 
5CB5_0_A,5CB5_0_I

>  <N_constrained_atoms>  (659) 
19.0

>  <ref_url>  (659) 
nan

>  <method>  (659) 
nan

>  <comRMSD>  (659) 
0.801975

>  <N_unconstrained_atoms>  (659) 
2.0

>  <∆∆G>  (659) 
-8.327486

>  <runtime>  (659) 
30.860031

>  <generation_date>  (659) 
nan

$$$$
5CB5_0_E_β-5CMS_0_D_β
     RDKit          3D

 16 16  0  0  0  0  0  0  0  0999 V2000
   -1.5320   20.7920   -8.3650 O   0  0  0  0  0  0  0  0  0  0  0  0
   -0.5500   19.5740   -7.8380 P   0  0  0  0  0  0  0  0  0  0  0  0
   -0.5300   19.2100   -6.2340 O   0  0  0  0  0  0  0  0  0  0  0  0
    0.5870   20.5720   -7.6270 O   0  0  0  0  0  0  0  0  0  0  0  0
    0.1860   18.6390   -8.8820 O   0  0  0  0  0  0  0  0  0  0  0  0
   -1.6360   18.1140   -5.8530 P   0  0  0  0  0  0  0  0  0  0  0  0
   -0.6220   16.9050   -5.9530 O   0  0  0  0  0  0  0  0  0  0  0  0
   -2.5790   17.3450   -7.0080 O   0  0  0  0  0  0  0  0  0  0  0  0
   -2.0840   17.8150   -4.3860 O   0  0  0  0  0  0  0  0  0  0  0  0
   -0.0030   16.0270   -5.0050 C   0  0  1  0  0  0  0  0  0  0  0  0
   -0.3990   16.1570   -3.6710 O   0  0  0  0  0  0  0  0  0  0  0  0
   -0.0630   14.5590   -5.3190 C   0  0  1  0  0  0  0  0  0  0  0  0
    1.1920   13.9990   -5.6330 O   0  0  0  0  0  0  0  0  0  0  0  0
   -1.2030   15.0450   -3.3560 C   0  0  0  0  0  0  0  0  0  0  0  0
   -0.4080   13.9160   -3.9870 C   0  0  1  0  0  0  0  0  0  0  0  0
   -1.1450   12.7920   -4.2510 O   0  0  0  0  0  0  0  0  0  0  0  0
  1  2  1  0
  2  3  1  0
  2  4  1  0
  2  5  1  0
  3  6  1  0
  6  7  1  0
  6  8  1  0
  6  9  1  0
 10  7  1  6
 10 11  1  0
 10 12  1  0
 12 13  1  1
 11 14  1  0
 12 15  1  0
 14 15  1  0
 15 16  1  6
M  CHG  2   4  -1   8  -1
M  END
>  <%Rank>  (660) 
50.305344

>  <N_hits>  (660) 
2

>  <submitter_name>  (660) 
nan

>  <original SMILES>  (660) 
nan

>  <∆G_unbound>  (660) 
1.160673

>  <∆G_bound>  (660) 
-5.426405

>  <regarded>  (660) 
5CB5_0_E_β,5CMS_0_D_β

>  <ref_pdb>  (660) 
nan

>  <smiles>  (660) 
[O-][PH](O)(O)O[PH]([O-])(O)OC1OCC(O)C1O

>  <submitter_email>  (660) 
nan

>  <disregarded>  (660) 


>  <LE>  (660) 
-0.411692

>  <submitter_institution>  (660) 
nan

>  <ref_mols>  (660) 
5CB5_0_E,5CMS_0_D

>  <N_constrained_atoms>  (660) 
16.0

>  <ref_url>  (660) 
nan

>  <method>  (660) 
nan

>  <comRMSD>  (660) 
0.798299

>  <N_unconstrained_atoms>  (660) 
0.0

>  <∆∆G>  (660) 
-6.587078

>  <runtime>  (660) 
28.883549

>  <generation_date>  (660) 
nan

$$$$
5CB5_0_Q_α-5CMS_0_K_β
     RDKit          3D

 17 17  0  0  0  0  0  0  0  0999 V2000
   -2.2710   21.0790   -7.5180 C   0  0  0  0  0  0  0  0  0  0  0  0
   -0.7460   20.3520   -8.0640 P   0  0  0  0  0  0  0  0  0  0  0  0
   -0.3860   19.4650   -6.8480 O   0  0  0  0  0  0  0  0  0  0  0  0
   -3.2100   21.7850   -8.5380 C   0  0  1  0  0  0  0  0  0  0  0  0
    0.6580   21.1270   -7.8680 O   0  0  0  0  0  0  0  0  0  0  0  0
   -0.6590   18.8290   -8.8190 O   0  0  0  0  0  0  0  0  0  0  0  0
   -4.5060   21.3060   -8.4800 O   0  0  0  0  0  0  0  0  0  0  0  0
   -3.5300   23.2670   -8.2780 C   0  0  1  0  0  0  0  0  0  0  0  0
   -4.3720   23.7680   -9.2760 O   0  0  0  0  0  0  0  0  0  0  0  0
   -1.4130   18.5720   -5.9050 P   0  0  0  0  0  0  0  0  0  0  0  0
   -5.1410   21.8880   -7.3880 C   0  0  2  0  0  0  0  0  0  0  0  0
   -4.3920   23.1120   -7.0310 C   0  0  2  0  0  0  0  0  0  0  0  0
   -5.1830   21.1360   -6.2240 O   0  0  0  0  0  0  0  0  0  0  0  0
   -5.2940   24.1930   -6.9070 O   0  0  0  0  0  0  0  0  0  0  0  0
   -1.1740   16.9340   -5.6050 O   0  0  0  0  0  0  0  0  0  0  0  0
   -2.3260   18.1740   -7.0660 O   0  0  0  0  0  0  0  0  0  0  0  0
   -2.4860   19.3600   -5.0460 O   0  0  0  0  0  0  0  0  0  0  0  0
  1  2  1  0
  2  3  1  0
  4  1  1  1
  2  5  1  0
  2  6  1  0
  4  7  1  0
  4  8  1  0
  8  9  1  6
  3 10  1  0
  7 11  1  0
  8 12  1  0
 11 12  1  0
 11 13  1  1
 12 14  1  6
 10 15  1  0
 10 16  1  0
 10 17  1  0
M  CHG  2   5  -1  16  -1
M  END
>  <%Rank>  (661) 
50.381679

>  <N_hits>  (661) 
2

>  <submitter_name>  (661) 
nan

>  <original SMILES>  (661) 
nan

>  <∆G_unbound>  (661) 
1.818629

>  <∆G_bound>  (661) 
-8.263988

>  <regarded>  (661) 
5CB5_0_Q_α,5CMS_0_K_β

>  <ref_pdb>  (661) 
nan

>  <smiles>  (661) 
[O-][PH](O)(O)O[PH]([O-])(O)CC1OC(O)C(O)C1O

>  <submitter_email>  (661) 
nan

>  <disregarded>  (661) 


>  <LE>  (661) 
-0.593095

>  <submitter_institution>  (661) 
nan

>  <ref_mols>  (661) 
5CB5_0_Q,5CMS_0_K

>  <N_constrained_atoms>  (661) 
17.0

>  <ref_url>  (661) 
nan

>  <method>  (661) 
nan

>  <comRMSD>  (661) 
0.91179

>  <N_unconstrained_atoms>  (661) 
0.0

>  <∆∆G>  (661) 
-10.082617

>  <runtime>  (661) 
31.830335

>  <generation_date>  (661) 
nan

$$$$
mArh-x0628_0_A_α-mArh-5cb5_M_1_M_γ
     RDKit          3D

 18 20  0  0  0  0  0  0  0  0999 V2000
   -0.8300    9.1300   -7.3190 C   0  0  0  0  0  0  0  0  0  0  0  0
   -0.8230   10.3660   -6.5100 C   0  0  0  0  0  0  0  0  0  0  0  0
   -1.8870   10.7540   -5.7370 N   0  0  0  0  0  0  0  0  0  0  0  0
    0.2290   11.1990   -6.4720 N   0  0  0  0  0  0  0  0  0  0  0  0
   -0.2110   12.1530   -5.6210 N   0  0  0  0  0  0  0  0  0  0  0  0
   -1.4700   11.8800   -5.1930 C   0  0  0  0  0  0  0  0  0  0  0  0
   -2.1720   12.7750   -4.2570 C   0  0  0  0  0  0  0  0  0  0  0  0
    0.6230   13.3010   -5.2470 C   0  0  2  0  0  0  0  0  0  0  0  0
    1.8470   12.8510   -4.4850 C   0  0  0  0  0  0  0  0  0  0  0  0
   -0.0410   14.3250   -4.3030 C   0  0  2  0  0  0  0  0  0  0  0  0
   -1.2130   13.7170   -3.5360 C   0  0  1  0  0  0  0  0  0  0  0  0
    1.4330   12.2630   -3.1480 C   0  0  0  0  0  0  0  0  0  0  0  0
   -1.8340   14.9660   -2.9760 C   0  0  0  0  0  0  0  0  0  0  0  0
   -0.6990   15.5220   -4.9540 C   0  0  2  0  0  0  0  0  0  0  0  0
    0.6850   11.2980   -3.0250 O   0  0  0  0  0  0  0  0  0  0  0  0
    1.9360   12.9110   -2.0790 O   0  0  0  0  0  0  0  0  0  0  0  0
    0.2420   16.6420   -5.4160 C   0  0  0  0  0  0  0  0  0  0  0  0
   -1.5150   16.0300   -3.9020 O   0  0  0  0  0  0  0  0  0  0  0  0
  1  2  1  0
  2  3  1  0
  2  4  2  0
  4  5  1  0
  3  6  2  0
  5  6  1  0
  6  7  1  0
  5  8  1  0
  8  9  1  1
 10  8  1  6
 11  7  1  6
 10 11  1  0
  9 12  1  0
 11 13  1  0
 10 14  1  0
 12 15  2  0
 12 16  1  0
 14 17  1  1
 13 18  1  0
 14 18  1  0
M  END
>  <%Rank>  (662) 
50.458015

>  <N_hits>  (662) 
2

>  <submitter_name>  (662) 
nan

>  <original SMILES>  (662) 
nan

>  <∆G_unbound>  (662) 
1.766114

>  <∆G_bound>  (662) 
-1.528541

>  <regarded>  (662) 
mArh-x0628_0_A_α,mArh-5cb5_M_1_M_γ

>  <ref_pdb>  (662) 
nan

>  <smiles>  (662) 
Cc1nc2n(n1)C(CC(=O)O)C1C(COC1C)C2

>  <submitter_email>  (662) 
nan

>  <disregarded>  (662) 


>  <LE>  (662) 
-0.183036

>  <submitter_institution>  (662) 
nan

>  <ref_mols>  (662) 
mArh-x0628_0_A,mArh-5cb5_M_1_M

>  <N_constrained_atoms>  (662) 
18.0

>  <ref_url>  (662) 
nan

>  <method>  (662) 
nan

>  <comRMSD>  (662) 
0.72827

>  <N_unconstrained_atoms>  (662) 
0.0

>  <∆∆G>  (662) 
-3.294656

>  <runtime>  (662) 
35.493157

>  <generation_date>  (662) 
nan

$$$$
mArh-6woj_A_0_A_γ-5CMS_0_B_β
     RDKit          3D

 16 16  0  0  0  0  0  0  0  0999 V2000
   -1.1210   12.9160   -4.5910 O   0  0  0  0  0  0  0  0  0  0  0  0
    0.0610   13.5060   -4.1660 C   0  0  2  0  0  0  0  0  0  0  0  0
   -0.1000   14.4140   -2.9420 C   0  0  0  0  0  0  0  0  0  0  0  0
    0.6390   14.4480   -5.1780 C   0  0  2  0  0  0  0  0  0  0  0  0
    1.9910   14.3670   -4.8850 O   0  0  0  0  0  0  0  0  0  0  0  0
    0.3210   15.6910   -3.3680 O   0  0  0  0  0  0  0  0  0  0  0  0
   -0.0410   15.6830   -4.6990 C   0  0  1  0  0  0  0  0  0  0  0  0
    0.0870   17.0650   -5.4130 C   0  0  0  0  0  0  0  0  0  0  0  0
   -1.4970   17.8560   -5.6520 P   0  0  0  0  0  0  0  0  0  0  0  0
   -1.2970   19.0630   -6.5990 O   0  0  0  0  0  0  0  0  0  0  0  0
   -2.6080   17.3020   -6.8170 O   0  0  0  0  0  0  0  0  0  0  0  0
   -2.0510   18.9270   -4.6150 O   0  0  0  0  0  0  0  0  0  0  0  0
   -0.1830   19.4170   -7.6780 P   0  0  0  0  0  0  0  0  0  0  0  0
   -1.1910   20.0180   -8.6460 O   0  0  0  0  0  0  0  0  0  0  0  0
    0.6140   20.8910   -7.7010 O   0  0  0  0  0  0  0  0  0  0  0  0
    0.2020   18.3320   -8.8270 O   0  0  0  0  0  0  0  0  0  0  0  0
  2  1  1  6
  2  3  1  0
  2  4  1  0
  4  5  1  1
  3  6  1  0
  4  7  1  0
  6  7  1  0
  7  8  1  6
  8  9  1  0
  9 10  1  0
  9 11  1  0
  9 12  1  0
 10 13  1  0
 13 14  1  0
 13 15  1  0
 13 16  1  0
M  CHG  2  11  -1  15  -1
M  END
>  <%Rank>  (663) 
50.534351

>  <N_hits>  (663) 
2

>  <submitter_name>  (663) 
nan

>  <original SMILES>  (663) 
nan

>  <∆G_unbound>  (663) 
0.683631

>  <∆G_bound>  (663) 
-7.609943

>  <regarded>  (663) 
mArh-6woj_A_0_A_γ,5CMS_0_B_β

>  <ref_pdb>  (663) 
nan

>  <smiles>  (663) 
[O-][PH](O)(O)O[PH]([O-])(O)CC1OCC(O)C1O

>  <submitter_email>  (663) 
nan

>  <disregarded>  (663) 


>  <LE>  (663) 
-0.518348

>  <submitter_institution>  (663) 
nan

>  <ref_mols>  (663) 
mArh-6woj_A_0_A,5CMS_0_B

>  <N_constrained_atoms>  (663) 
16.0

>  <ref_url>  (663) 
nan

>  <method>  (663) 
nan

>  <comRMSD>  (663) 
0.85442

>  <N_unconstrained_atoms>  (663) 
0.0

>  <∆∆G>  (663) 
-8.293574

>  <runtime>  (663) 
36.114456

>  <generation_date>  (663) 
nan

$$$$
mArh-x0918_0_B_α-mArh-5cb3_0_A_β
     RDKit          3D

 23 23  0  0  0  0  0  0  0  0999 V2000
   -3.2540   29.6180  -14.2950 N   0  0  0  0  0  0  0  0  0  0  0  0
   -4.4950   29.3250  -13.7120 C   0  0  0  0  0  0  0  0  0  0  0  0
   -4.6560   28.2600  -12.8220 C   0  0  0  0  0  0  0  0  0  0  0  0
   -5.6020   30.1040  -14.0230 C   0  0  0  0  0  0  0  0  0  0  0  0
   -6.8120   29.7990  -13.4360 C   0  0  0  0  0  0  0  0  0  0  0  0
   -5.9280   28.0150  -12.2830 C   0  0  0  0  0  0  0  0  0  0  0  0
   -6.2460   26.8720  -11.3370 C   0  0  0  0  0  0  0  0  0  0  0  0
   -6.9940   28.7830  -12.5830 N   0  0  0  0  0  0  0  0  0  0  0  0
   -5.3620   25.6130  -11.4790 C   0  0  0  0  0  0  0  0  0  0  0  0
   -5.6780   24.4210  -10.5340 C   0  0  0  0  0  0  0  0  0  0  0  0
   -4.4400   23.5720  -10.1900 C   0  0  0  0  0  0  0  0  0  0  0  0
   -4.4390   22.9730   -8.7780 C   0  0  0  0  0  0  0  0  0  0  0  0
   -3.0160   22.8200   -8.1940 C   0  0  0  0  0  0  0  0  0  0  0  0
   -2.6390   21.4290   -7.6880 C   0  0  0  0  0  0  0  0  0  0  0  0
   -1.6810   20.7720   -8.5190 O   0  0  0  0  0  0  0  0  0  0  0  0
   -0.4600   19.9850   -7.8490 P   0  0  0  0  0  0  0  0  0  0  0  0
   -1.0030   19.5540   -6.4170 O   0  0  0  0  0  0  0  0  0  0  0  0
    0.8110   20.7530   -7.7310 O   0  0  0  0  0  0  0  0  0  0  0  0
   -0.3050   18.6290   -8.6920 O   0  0  0  0  0  0  0  0  0  0  0  0
   -1.6160   18.1220   -6.1230 P   0  0  0  0  0  0  0  0  0  0  0  0
   -0.3330   17.1780   -6.0930 O   0  0  0  0  0  0  0  0  0  0  0  0
   -2.6980   17.6150   -6.9810 O   0  0  0  0  0  0  0  0  0  0  0  0
   -1.9250   18.1450   -4.5790 O   0  0  0  0  0  0  0  0  0  0  0  0
  1  2  1  0
  2  3  2  0
  2  4  1  0
  4  5  2  0
  3  6  1  0
  6  7  1  0
  5  8  1  0
  6  8  2  0
  7  9  1  0
  9 10  1  0
 10 11  1  0
 11 12  1  0
 12 13  1  0
 13 14  1  0
 14 15  1  0
 15 16  1  0
 16 17  1  0
 16 18  2  0
 16 19  1  0
 17 20  1  0
 20 21  1  0
 20 22  2  0
 20 23  1  0
M  END
>  <%Rank>  (664) 
50.610687

>  <N_hits>  (664) 
2

>  <submitter_name>  (664) 
nan

>  <original SMILES>  (664) 
nan

>  <∆G_unbound>  (664) 
0.18659

>  <∆G_bound>  (664) 
-13.453543

>  <regarded>  (664) 
mArh-x0918_0_B_α,mArh-5cb3_0_A_β

>  <ref_pdb>  (664) 
nan

>  <smiles>  (664) 
Nc1ccnc(CCCCCCCOP(=O)(O)OP(=O)(O)O)c1

>  <submitter_email>  (664) 
nan

>  <disregarded>  (664) 


>  <LE>  (664) 
-0.593049

>  <submitter_institution>  (664) 
nan

>  <ref_mols>  (664) 
mArh-x0918_0_B,mArh-5cb3_0_A

>  <N_constrained_atoms>  (664) 
16.0

>  <ref_url>  (664) 
nan

>  <method>  (664) 
nan

>  <comRMSD>  (664) 
0.673957

>  <N_unconstrained_atoms>  (664) 
7.0

>  <∆∆G>  (664) 
-13.640133

>  <runtime>  (664) 
32.372626

>  <generation_date>  (664) 
nan

$$$$
mArh-x0711_0_A_α-6WOJ_0_C_δ
     RDKit          3D

 20 21  0  0  0  0  0  0  0  0999 V2000
   -1.6050   15.5070   -2.3160 N   0  0  0  0  0  0  0  0  0  0  0  0
   -0.7610   14.2750   -3.1260 S   0  0  0  0  0  0  0  0  0  0  0  0
   -2.0040   13.2020   -3.8130 C   0  0  0  0  0  0  0  0  0  0  0  0
   -2.8170   15.4060   -1.4180 C   0  0  1  0  0  0  0  0  0  0  0  0
   -0.1200   14.9440   -4.2400 O   0  0  0  0  0  0  0  0  0  0  0  0
    0.0620   13.5250   -2.2010 O   0  0  0  0  0  0  0  0  0  0  0  0
   -4.0090   15.3850   -2.3340 C   0  0  0  0  0  0  0  0  0  0  0  0
   -2.7690   14.2420   -0.3500 C   0  0  2  0  0  0  0  0  0  0  0  0
   -5.1410   14.7180   -2.0990 C   0  0  0  0  0  0  0  0  0  0  0  0
   -4.0320   13.3280   -0.2960 C   0  0  0  0  0  0  0  0  0  0  0  0
   -2.6570   14.7430    1.1060 C   0  0  2  0  0  0  0  0  0  0  0  0
   -1.4570   13.4840   -0.5650 C   0  0  0  0  0  0  0  0  0  0  0  0
   -3.7700   15.5000    1.6380 N   0  0  0  0  0  0  0  0  0  0  0  0
   -5.3600   13.8640   -0.8820 C   0  0  1  0  0  0  0  0  0  0  0  0
   -0.3140   14.3620   -0.4010 N   0  0  0  0  0  0  0  0  0  0  0  0
   -1.4520   15.4650    1.3300 N   0  0  0  0  0  0  0  0  0  0  0  0
   -6.3910   14.4910    0.1030 C   0  0  0  0  0  0  0  0  0  0  0  0
   -0.2420   14.7550    0.9880 C   0  0  0  0  0  0  0  0  0  0  0  0
   -6.1120   14.6010    1.4490 N   0  0  0  0  0  0  0  0  0  0  0  0
   -7.4870   14.8870   -0.2810 O   0  0  0  0  0  0  0  0  0  0  0  0
  2  1  1  0
  2  3  1  0
  4  1  1  6
  2  5  2  0
  2  6  2  0
  4  7  1  0
  4  8  1  0
  7  9  2  0
  8 10  1  1
  8 11  1  0
  8 12  1  0
 11 13  1  6
  9 14  1  0
 10 14  1  0
 12 15  1  0
 11 16  1  0
 14 17  1  1
 15 18  1  0
 16 18  1  0
 17 19  1  0
 17 20  2  0
M  END
>  <%Rank>  (665) 
50.687023

>  <N_hits>  (665) 
2

>  <submitter_name>  (665) 
nan

>  <original SMILES>  (665) 
nan

>  <∆G_unbound>  (665) 
1.371949

>  <∆G_bound>  (665) 
0.257357

>  <regarded>  (665) 
mArh-x0711_0_A_α,6WOJ_0_C_δ

>  <ref_pdb>  (665) 
nan

>  <smiles>  (665) 
CS(=O)(=O)NC1C=CC(C(N)=O)CC12CNCNC2N

>  <submitter_email>  (665) 
nan

>  <disregarded>  (665) 


>  <LE>  (665) 
-0.05573

>  <submitter_institution>  (665) 
nan

>  <ref_mols>  (665) 
mArh-x0711_0_A,6WOJ_0_C

>  <N_constrained_atoms>  (665) 
20.0

>  <ref_url>  (665) 
nan

>  <method>  (665) 
nan

>  <comRMSD>  (665) 
0.70978

>  <N_unconstrained_atoms>  (665) 
0.0

>  <∆∆G>  (665) 
-1.114592

>  <runtime>  (665) 
32.902955

>  <generation_date>  (665) 
nan

$$$$
5CMS_0_F_α-5CMS_0_B_β
     RDKit          3D

 17 17  0  0  0  0  0  0  0  0999 V2000
   -1.9930   21.4450   -8.6110 C   0  0  0  0  0  0  0  0  0  0  0  0
   -0.7580   20.2970   -8.1410 P   0  0  0  0  0  0  0  0  0  0  0  0
   -1.4220   19.9150   -6.7860 O   0  0  0  0  0  0  0  0  0  0  0  0
   -1.8400   22.0190  -10.0110 C   0  0  1  0  0  0  0  0  0  0  0  0
    0.6340   20.7720   -7.4980 O   0  0  0  0  0  0  0  0  0  0  0  0
   -0.8540   18.6520   -8.5390 O   0  0  0  0  0  0  0  0  0  0  0  0
   -3.0750   22.1250  -10.6620 O   0  0  0  0  0  0  0  0  0  0  0  0
   -1.2300   23.4260  -10.0310 C   0  0  1  0  0  0  0  0  0  0  0  0
    0.1470   23.3640  -10.2080 O   0  0  0  0  0  0  0  0  0  0  0  0
   -1.3740   18.4360   -6.0150 P   0  0  0  0  0  0  0  0  0  0  0  0
   -3.1660   23.3590  -11.2470 C   0  0  2  0  0  0  0  0  0  0  0  0
   -1.7720   23.8700  -11.3510 C   0  0  1  0  0  0  0  0  0  0  0  0
   -3.9710   24.2350  -10.5410 O   0  0  0  0  0  0  0  0  0  0  0  0
   -1.6590   25.2710  -11.4640 O   0  0  0  0  0  0  0  0  0  0  0  0
   -0.2090   17.3130   -6.4170 O   0  0  0  0  0  0  0  0  0  0  0  0
   -2.3750   17.8280   -7.0010 O   0  0  0  0  0  0  0  0  0  0  0  0
   -2.2280   18.0710   -4.7240 O   0  0  0  0  0  0  0  0  0  0  0  0
  1  2  1  0
  2  3  1  0
  4  1  1  1
  2  5  1  0
  2  6  1  0
  4  7  1  0
  4  8  1  0
  8  9  1  6
  3 10  1  0
  7 11  1  0
  8 12  1  0
 11 12  1  0
 11 13  1  1
 12 14  1  1
 10 15  1  0
 10 16  1  0
 10 17  1  0
M  CHG  2   5  -1  16  -1
M  END
>  <%Rank>  (666) 
50.763359

>  <N_hits>  (666) 
2

>  <submitter_name>  (666) 
nan

>  <original SMILES>  (666) 
nan

>  <∆G_unbound>  (666) 
1.818629

>  <∆G_bound>  (666) 
-4.760175

>  <regarded>  (666) 
5CMS_0_F_α,5CMS_0_B_β

>  <ref_pdb>  (666) 
nan

>  <smiles>  (666) 
[O-][PH](O)(O)O[PH]([O-])(O)CC1OC(O)C(O)C1O

>  <submitter_email>  (666) 
nan

>  <disregarded>  (666) 


>  <LE>  (666) 
-0.386988

>  <submitter_institution>  (666) 
nan

>  <ref_mols>  (666) 
5CMS_0_F,5CMS_0_B

>  <N_constrained_atoms>  (666) 
17.0

>  <ref_url>  (666) 
nan

>  <method>  (666) 
nan

>  <comRMSD>  (666) 
0.815533

>  <N_unconstrained_atoms>  (666) 
0.0

>  <∆∆G>  (666) 
-6.578803

>  <runtime>  (666) 
34.150562

>  <generation_date>  (666) 
nan

$$$$
5DUS_0_A_β-5CB5_0_Q_α
     RDKit          3D

 17 17  0  0  0  0  0  0  0  0999 V2000
   -1.7690   21.2030   -8.9260 O   0  0  0  0  0  0  0  0  0  0  0  0
   -0.8670   20.2830   -7.8080 P   0  0  0  0  0  0  0  0  0  0  0  0
   -1.6180   19.6600   -6.5020 O   0  0  0  0  0  0  0  0  0  0  0  0
   -3.1210   21.5780   -8.6810 C   0  0  1  0  0  0  0  0  0  0  0  0
   -0.6150   21.5900   -7.0880 O   0  0  0  0  0  0  0  0  0  0  0  0
   -0.9770   18.9630   -8.5690 O   0  0  0  0  0  0  0  0  0  0  0  0
   -3.6620   21.0890   -7.5360 O   0  0  0  0  0  0  0  0  0  0  0  0
   -3.3390   23.1200   -8.5200 C   0  0  1  0  0  0  0  0  0  0  0  0
   -1.3930   18.2680   -5.8750 P   0  0  0  0  0  0  0  0  0  0  0  0
   -4.0690   23.5230   -9.6360 O   0  0  0  0  0  0  0  0  0  0  0  0
   -4.7710   21.8210   -7.2430 C   0  0  2  0  0  0  0  0  0  0  0  0
   -4.2750   23.2170   -7.3020 C   0  0  2  0  0  0  0  0  0  0  0  0
   -1.0320   16.8940   -5.2860 O   0  0  0  0  0  0  0  0  0  0  0  0
   -2.6310   17.6420   -6.7560 O   0  0  0  0  0  0  0  0  0  0  0  0
   -1.7450   18.8890   -4.4090 O   0  0  0  0  0  0  0  0  0  0  0  0
   -5.4080   21.5540   -6.0380 O   0  0  0  0  0  0  0  0  0  0  0  0
   -5.3060   24.0900   -7.6620 O   0  0  0  0  0  0  0  0  0  0  0  0
  1  2  1  0
  2  3  1  0
  4  1  1  1
  2  5  1  0
  2  6  1  0
  4  7  1  0
  4  8  1  0
  3  9  1  0
  8 10  1  6
  7 11  1  0
  8 12  1  0
 11 12  1  0
  9 13  1  0
  9 14  1  0
  9 15  1  0
 11 16  1  1
 12 17  1  6
M  CHG  2   5  -1  14  -1
M  END
>  <%Rank>  (667) 
50.839695

>  <N_hits>  (667) 
2

>  <submitter_name>  (667) 
nan

>  <original SMILES>  (667) 
nan

>  <∆G_unbound>  (667) 
0.972863

>  <∆G_bound>  (667) 
-6.854717

>  <regarded>  (667) 
5DUS_0_A_β,5CB5_0_Q_α

>  <ref_pdb>  (667) 
nan

>  <smiles>  (667) 
[O-][PH](O)(O)O[PH]([O-])(O)OC1OC(O)C(O)C1O

>  <submitter_email>  (667) 
nan

>  <disregarded>  (667) 


>  <LE>  (667) 
-0.460446

>  <submitter_institution>  (667) 
nan

>  <ref_mols>  (667) 
5DUS_0_A,5CB5_0_Q

>  <N_constrained_atoms>  (667) 
17.0

>  <ref_url>  (667) 
nan

>  <method>  (667) 
nan

>  <comRMSD>  (667) 
0.852345

>  <N_unconstrained_atoms>  (667) 
0.0

>  <∆∆G>  (667) 
-7.827581

>  <runtime>  (667) 
40.44575

>  <generation_date>  (667) 
nan

$$$$
6MEA_0_B_α-mArh-x0849_0_A_α
     RDKit          3D

 25 27  0  0  0  0  0  0  0  0999 V2000
   -2.0860   21.6140   -8.1610 C   0  0  0  0  0  0  0  0  0  0  0  0
   -3.4480   22.1600   -8.5820 C   0  0  1  0  0  0  0  0  0  0  0  0
   -4.4670   21.4720   -7.8730 O   0  0  0  0  0  0  0  0  0  0  0  0
   -3.6790   23.6250   -8.2080 C   0  0  1  0  0  0  0  0  0  0  0  0
   -4.6200   24.1810   -9.1340 O   0  0  0  0  0  0  0  0  0  0  0  0
   -4.3850   22.0610   -6.5910 C   0  0  2  0  0  0  0  0  0  0  0  0
   -4.3190   23.5700   -6.8170 C   0  0  2  0  0  0  0  0  0  0  0  0
   -3.1580   21.6770   -5.9940 O   0  0  0  0  0  0  0  0  0  0  0  0
   -5.6310   24.1640   -6.8040 O   0  0  0  0  0  0  0  0  0  0  0  0
   -3.2240   20.3260   -5.6370 C   0  0  0  0  0  0  0  0  0  0  0  0
   -1.9310   19.4830   -5.5450 C   0  0  0  0  0  0  0  0  0  0  0  0
   -2.0710   17.9500   -5.8270 C   0  0  0  0  0  0  0  0  0  0  0  0
   -1.6670   17.0690   -4.5970 C   0  0  0  0  0  0  0  0  0  0  0  0
   -2.7240   16.0830   -3.9860 C   0  0  0  0  0  0  0  0  0  0  0  0
   -2.3350   15.5330   -2.7070 O   0  0  0  0  0  0  0  0  0  0  0  0
   -2.9570   15.4650   -1.4390 C   0  0  0  0  0  0  0  0  0  0  0  0
   -2.0060   15.1250   -0.4760 C   0  0  0  0  0  0  0  0  0  0  0  0
   -4.2720   15.6560   -1.0020 C   0  0  0  0  0  0  0  0  0  0  0  0
   -2.3520   14.9770    0.8750 C   0  0  0  0  0  0  0  0  0  0  0  0
   -4.5200   15.4900    0.3610 C   0  0  0  0  0  0  0  0  0  0  0  0
   -0.6820   14.9230   -0.8530 C   0  0  0  0  0  0  0  0  0  0  0  0
   -3.5940   15.1620    1.2840 N   0  0  0  0  0  0  0  0  0  0  0  0
   -1.4460   14.6460    1.7860 N   0  0  0  0  0  0  0  0  0  0  0  0
    0.2510   14.5840    0.0820 C   0  0  0  0  0  0  0  0  0  0  0  0
   -0.1810   14.4550    1.3890 C   0  0  0  0  0  0  0  0  0  0  0  0
  2  1  1  1
  2  3  1  0
  2  4  1  0
  4  5  1  6
  3  6  1  0
  4  7  1  0
  6  7  1  0
  6  8  1  6
  7  9  1  6
  8 10  1  0
 10 11  1  0
 11 12  1  0
 12 13  1  0
 13 14  1  0
 14 15  1  0
 15 16  1  0
 16 17  1  0
 16 18  2  0
 17 19  2  0
 18 20  1  0
 17 21  1  0
 19 22  1  0
 20 22  2  0
 19 23  1  0
 21 24  2  0
 23 25  2  0
 24 25  1  0
M  END
>  <%Rank>  (668) 
50.916031

>  <N_hits>  (668) 
2

>  <submitter_name>  (668) 
nan

>  <original SMILES>  (668) 
nan

>  <∆G_unbound>  (668) 
0.006541

>  <∆G_bound>  (668) 
-11.360811

>  <regarded>  (668) 
6MEA_0_B_α,mArh-x0849_0_A_α

>  <ref_pdb>  (668) 
nan

>  <smiles>  (668) 
CC1OC(OCCCCCOc2ccnc3ncccc23)C(O)C1O

>  <submitter_email>  (668) 
nan

>  <disregarded>  (668) 


>  <LE>  (668) 
-0.454694

>  <submitter_institution>  (668) 
nan

>  <ref_mols>  (668) 
6MEA_0_B,mArh-x0849_0_A

>  <N_constrained_atoms>  (668) 
20.0

>  <ref_url>  (668) 
nan

>  <method>  (668) 
nan

>  <comRMSD>  (668) 
0.785584

>  <N_unconstrained_atoms>  (668) 
5.0

>  <∆∆G>  (668) 
-11.367352

>  <runtime>  (668) 
68.236176

>  <generation_date>  (668) 
nan

$$$$
mArh-5cms_Q_16_Q_β-mArh-5cb5_N_0_N_β
     RDKit          3D

  9  8  0  0  0  0  0  0  0  0999 V2000
   -1.7040   20.2470   -7.8870 O   0  0  0  0  0  0  0  0  0  0  0  0
   -0.2880   19.5400   -7.7110 P   0  0  0  0  0  0  0  0  0  0  0  0
   -0.4360   18.4080   -6.6400 O   0  0  0  0  0  0  0  0  0  0  0  0
    0.8340   20.4840   -7.5810 O   0  0  0  0  0  0  0  0  0  0  0  0
   -0.1170   18.6570   -9.0120 O   0  0  0  0  0  0  0  0  0  0  0  0
   -1.7310   17.9620   -5.8630 P   0  0  0  0  0  0  0  0  0  0  0  0
   -1.1900   16.9300   -4.7820 O   0  0  0  0  0  0  0  0  0  0  0  0
   -2.7860   17.3940   -6.7280 O   0  0  0  0  0  0  0  0  0  0  0  0
   -2.1670   19.2260   -5.0020 O   0  0  0  0  0  0  0  0  0  0  0  0
  1  2  1  0
  2  3  1  0
  2  4  2  0
  2  5  1  0
  3  6  1  0
  6  7  1  0
  6  8  2  0
  6  9  1  0
M  END
>  <%Rank>  (669) 
50.992366

>  <N_hits>  (669) 
2

>  <submitter_name>  (669) 
nan

>  <original SMILES>  (669) 
nan

>  <∆G_unbound>  (669) 
0.687887

>  <∆G_bound>  (669) 
-7.93083

>  <regarded>  (669) 
mArh-5cms_Q_16_Q_β,mArh-5cb5_N_0_N_β

>  <ref_pdb>  (669) 
nan

>  <smiles>  (669) 
O=P(O)(O)OP(=O)(O)O

>  <submitter_email>  (669) 
nan

>  <disregarded>  (669) 


>  <LE>  (669) 
-0.957635

>  <submitter_institution>  (669) 
nan

>  <ref_mols>  (669) 
mArh-5cms_Q_16_Q,mArh-5cb5_N_0_N

>  <N_constrained_atoms>  (669) 
9.0

>  <ref_url>  (669) 
nan

>  <method>  (669) 
nan

>  <comRMSD>  (669) 
0.877907

>  <N_unconstrained_atoms>  (669) 
0.0

>  <∆∆G>  (669) 
-8.618718

>  <runtime>  (669) 
22.765741

>  <generation_date>  (669) 
nan

$$$$
mArh-5cms_M_12_M_α-mArh-x0228_0_B_α
     RDKit          3D

 19 20  0  0  0  0  0  0  0  0999 V2000
   -3.3960   22.0570   -9.2660 C   0  0  0  0  0  0  0  0  0  0  0  0
   -2.6520   22.2890  -10.5680 C   0  0  1  0  0  0  0  0  0  0  0  0
   -3.4330   21.9590  -11.6980 O   0  0  0  0  0  0  0  0  0  0  0  0
   -2.2160   23.7320  -10.7680 C   0  0  1  0  0  0  0  0  0  0  0  0
   -1.0040   23.9670  -11.4520 O   0  0  0  0  0  0  0  0  0  0  0  0
   -4.2130   23.0860  -11.9580 C   0  0  2  0  0  0  0  0  0  0  0  0
   -3.3870   24.3160  -11.5490 C   0  0  2  0  0  0  0  0  0  0  0  0
   -5.3630   23.0250  -11.1190 O   0  0  0  0  0  0  0  0  0  0  0  0
   -2.8800   25.0660  -12.6620 O   0  0  0  0  0  0  0  0  0  0  0  0
   -6.5550   22.8000  -11.8740 C   0  0  0  0  0  0  0  0  0  0  0  0
   -7.4700   24.0020  -11.6610 C   0  0  0  0  0  0  0  0  0  0  0  0
   -8.1380   24.3180  -12.9330 N   0  0  0  0  0  0  0  0  0  0  0  0
   -7.6390   25.2930  -13.5970 C   0  0  0  0  0  0  0  0  0  0  0  0
   -8.1000   25.7640  -14.7950 N   0  0  0  0  0  0  0  0  0  0  0  0
   -9.4210   25.4650  -15.0520 N   0  0  0  0  0  0  0  0  0  0  0  0
   -9.9160   24.4410  -15.8090 C   0  0  0  0  0  0  0  0  0  0  0  0
  -10.5190   26.1370  -14.5990 C   0  0  0  0  0  0  0  0  0  0  0  0
  -11.2290   24.4860  -15.8180 N   0  0  0  0  0  0  0  0  0  0  0  0
  -11.6120   25.5630  -15.0490 N   0  0  0  0  0  0  0  0  0  0  0  0
  2  1  1  1
  2  3  1  0
  2  4  1  0
  4  5  1  6
  3  6  1  0
  4  7  1  0
  6  7  1  0
  6  8  1  1
  7  9  1  6
  8 10  1  0
 10 11  1  0
 11 12  1  0
 12 13  2  3
 13 14  1  0
 14 15  1  0
 15 16  1  0
 15 17  1  0
 16 18  2  0
 17 19  2  0
 18 19  1  0
M  END
>  <%Rank>  (670) 
51.068702

>  <N_hits>  (670) 
2

>  <submitter_name>  (670) 
nan

>  <original SMILES>  (670) 
nan

>  <∆G_unbound>  (670) 
1.021507

>  <∆G_bound>  (670) 
-2.166285

>  <regarded>  (670) 
mArh-5cms_M_12_M_α,mArh-x0228_0_B_α

>  <ref_pdb>  (670) 
nan

>  <smiles>  (670) 
CC1OC(OCCN=CNn2cnnc2)C(O)C1O

>  <submitter_email>  (670) 
nan

>  <disregarded>  (670) 


>  <LE>  (670) 
-0.167779

>  <submitter_institution>  (670) 
nan

>  <ref_mols>  (670) 
mArh-5cms_M_12_M,mArh-x0228_0_B

>  <N_constrained_atoms>  (670) 
17.0

>  <ref_url>  (670) 
nan

>  <method>  (670) 
nan

>  <comRMSD>  (670) 
0.649033

>  <N_unconstrained_atoms>  (670) 
2.0

>  <∆∆G>  (670) 
-3.187792

>  <runtime>  (670) 
28.441759

>  <generation_date>  (670) 
nan

$$$$
MAC-120_0_A_α-mArh-5l9k_B_0_B_β
     RDKit          3D

 20 20  0  0  0  0  0  0  0  0999 V2000
   -7.2000   14.7920   -1.0960 C   0  0  0  0  0  0  0  0  0  0  0  0
   -5.7140   14.8290   -0.9320 C   0  0  0  0  0  0  0  0  0  0  0  0
   -4.9010   14.9980   -2.0470 C   0  0  0  0  0  0  0  0  0  0  0  0
   -5.1060   14.7040    0.3200 C   0  0  0  0  0  0  0  0  0  0  0  0
   -3.7190   14.7520    0.4040 C   0  0  0  0  0  0  0  0  0  0  0  0
   -3.5230   15.0380   -1.8880 C   0  0  0  0  0  0  0  0  0  0  0  0
   -3.0640   14.6370    1.6380 N   0  0  0  0  0  0  0  0  0  0  0  0
   -2.6350   15.2320   -3.0960 C   0  0  0  0  0  0  0  0  0  0  0  0
   -2.9250   14.9140   -0.6700 N   0  0  0  0  0  0  0  0  0  0  0  0
   -1.2870   15.8730   -2.7580 C   0  0  0  0  0  0  0  0  0  0  0  0
   -0.7950   16.9610   -3.7390 C   0  0  0  0  0  0  0  0  0  0  0  0
   -1.8840   17.6910   -4.3870 N   0  0  0  0  0  0  0  0  0  0  0  0
   -1.6230   17.9690   -5.9760 P   0  0  0  0  0  0  0  0  0  0  0  0
   -1.4880   19.4590   -6.4260 O   0  0  0  0  0  0  0  0  0  0  0  0
   -0.3240   17.2400   -6.4040 O   0  0  0  0  0  0  0  0  0  0  0  0
   -2.8110   17.3160   -6.7780 O   0  0  0  0  0  0  0  0  0  0  0  0
   -0.8550   19.8080   -7.8530 P   0  0  0  0  0  0  0  0  0  0  0  0
   -1.9560   20.7790   -8.4680 O   0  0  0  0  0  0  0  0  0  0  0  0
   -0.3620   18.6640   -8.6860 O   0  0  0  0  0  0  0  0  0  0  0  0
    0.3240   20.8220   -7.5130 O   0  0  0  0  0  0  0  0  0  0  0  0
  1  2  1  0
  2  3  2  0
  2  4  1  0
  4  5  2  0
  3  6  1  0
  5  7  1  0
  6  8  1  0
  5  9  1  0
  6  9  2  0
  8 10  1  0
 10 11  1  0
 11 12  1  0
 12 13  2  3
 13 14  1  0
 13 15  1  0
 13 16  1  0
 14 17  1  0
 17 18  1  0
 17 19  2  0
 17 20  1  0
M  END
>  <%Rank>  (671) 
51.145038

>  <N_hits>  (671) 
2

>  <submitter_name>  (671) 
nan

>  <original SMILES>  (671) 
nan

>  <∆G_unbound>  (671) 
0.209322

>  <∆G_bound>  (671) 
-11.850347

>  <regarded>  (671) 
MAC-120_0_A_α,mArh-5l9k_B_0_B_β

>  <ref_pdb>  (671) 
nan

>  <smiles>  (671) 
Cc1cc(N)nc(CCCN=P(O)(O)OP(=O)(O)O)c1

>  <submitter_email>  (671) 
nan

>  <disregarded>  (671) 


>  <LE>  (671) 
-0.602983

>  <submitter_institution>  (671) 
nan

>  <ref_mols>  (671) 
MAC-120_0_A,mArh-5l9k_B_0_B

>  <N_constrained_atoms>  (671) 
17.0

>  <ref_url>  (671) 
nan

>  <method>  (671) 
nan

>  <comRMSD>  (671) 
0.838526

>  <N_unconstrained_atoms>  (671) 
3.0

>  <∆∆G>  (671) 
-12.059669

>  <runtime>  (671) 
43.307441

>  <generation_date>  (671) 
nan

$$$$
mArh-5cms_Q_16_Q_β-mArh-6woj_A_0_A_γ
     RDKit          3D

 16 16  0  0  0  0  0  0  0  0999 V2000
   -1.5400   20.6050   -6.9590 O   0  0  0  0  0  0  0  0  0  0  0  0
   -0.6210   19.4860   -7.6050 P   0  0  0  0  0  0  0  0  0  0  0  0
   -1.3140   18.1060   -7.2700 O   0  0  0  0  0  0  0  0  0  0  0  0
    0.8270   19.6280   -7.3580 O   0  0  0  0  0  0  0  0  0  0  0  0
   -1.0110   19.7120   -9.1070 O   0  0  0  0  0  0  0  0  0  0  0  0
   -1.6650   17.5940   -5.8140 P   0  0  2  0  0  0  0  0  0  0  0  0
   -0.2870   16.9760   -5.2210 O   0  0  0  0  0  0  0  0  0  0  0  0
   -2.8640   16.7080   -5.8260 O   0  0  0  0  0  0  0  0  0  0  0  0
   -1.9200   18.9330   -4.9630 O   0  0  0  0  0  0  0  0  0  0  0  0
   -0.3530   15.7320   -4.5240 C   0  0  2  0  0  0  0  0  0  0  0  0
    0.2900   15.6790   -3.2440 O   0  0  0  0  0  0  0  0  0  0  0  0
    0.1620   14.4290   -5.1680 C   0  0  1  0  0  0  0  0  0  0  0  0
    1.5710   14.1370   -5.0990 O   0  0  0  0  0  0  0  0  0  0  0  0
    0.1100   14.2920   -2.8660 C   0  0  0  0  0  0  0  0  0  0  0  0
   -0.4780   13.5870   -4.1020 C   0  0  2  0  0  0  0  0  0  0  0  0
   -0.1590   12.2140   -4.2170 O   0  0  0  0  0  0  0  0  0  0  0  0
  1  2  1  0
  2  3  1  0
  2  4  2  0
  2  5  1  0
  3  6  1  0
  6  7  1  0
  6  8  2  0
  6  9  1  1
 10  7  1  6
 10 11  1  0
 10 12  1  0
 12 13  1  1
 11 14  1  0
 12 15  1  0
 14 15  1  0
 15 16  1  6
M  END
>  <%Rank>  (672) 
51.221374

>  <N_hits>  (672) 
2

>  <submitter_name>  (672) 
nan

>  <original SMILES>  (672) 
nan

>  <∆G_unbound>  (672) 
1.157846

>  <∆G_bound>  (672) 
-7.160534

>  <regarded>  (672) 
mArh-5cms_Q_16_Q_β,mArh-6woj_A_0_A_γ

>  <ref_pdb>  (672) 
nan

>  <smiles>  (672) 
O=P(O)(O)OP(=O)(O)OC1OCC(O)C1O

>  <submitter_email>  (672) 
nan

>  <disregarded>  (672) 


>  <LE>  (672) 
-0.519899

>  <submitter_institution>  (672) 
nan

>  <ref_mols>  (672) 
mArh-5cms_Q_16_Q,mArh-6woj_A_0_A

>  <N_constrained_atoms>  (672) 
16.0

>  <ref_url>  (672) 
nan

>  <method>  (672) 
nan

>  <comRMSD>  (672) 
0.863795

>  <N_unconstrained_atoms>  (672) 
0.0

>  <∆∆G>  (672) 
-8.318379

>  <runtime>  (672) 
32.820715

>  <generation_date>  (672) 
nan

$$$$
mArh-5lw0_A_0_A_β-5CMS_0_I_δ
     RDKit          3D

 21 22  0  0  0  0  0  0  0  0999 V2000
   -1.6120   20.3890   -8.6210 O   0  0  0  0  0  0  0  0  0  0  0  0
   -0.5540   19.4900   -7.8640 P   0  0  0  0  0  0  0  0  0  0  0  0
   -1.1710   19.1640   -6.4330 O   0  0  0  0  0  0  0  0  0  0  0  0
   -0.1730   18.3610   -8.7410 O   0  0  0  0  0  0  0  0  0  0  0  0
    0.6140   20.5370   -7.6730 O   0  0  0  0  0  0  0  0  0  0  0  0
   -1.6980   17.7380   -5.9880 P   0  0  2  0  0  0  0  0  0  0  0  0
   -0.3510   16.8820   -5.9730 O   0  0  0  0  0  0  0  0  0  0  0  0
   -2.7560   17.1610   -6.8540 O   0  0  0  0  0  0  0  0  0  0  0  0
   -2.0060   17.7350   -4.4370 O   0  0  0  0  0  0  0  0  0  0  0  0
   -1.7160   16.5080   -3.7870 C   0  0  0  0  0  0  0  0  0  0  0  0
   -2.9340   15.5870   -3.7480 C   0  0  0  0  0  0  0  0  0  0  0  0
   -2.9980   14.5860   -2.5970 C   0  0  1  0  0  0  0  0  0  0  0  0
   -1.6540   14.1650   -2.1690 N   0  0  0  0  0  0  0  0  0  0  0  0
   -3.7290   15.0650   -1.4100 N   0  0  0  0  0  0  0  0  0  0  0  0
   -1.5060   14.8520   -0.9180 C   0  0  1  0  0  0  0  0  0  0  0  0
   -2.8680   14.6370   -0.3120 C   0  0  1  0  0  0  0  0  0  0  0  0
   -0.4470   14.2740   -0.1480 N   0  0  0  0  0  0  0  0  0  0  0  0
   -2.8220   15.4700    0.9450 C   0  0  1  0  0  0  0  0  0  0  0  0
   -4.0570   15.4930    1.7170 N   0  0  0  0  0  0  0  0  0  0  0  0
   -0.4460   14.9310    1.1400 C   0  0  0  0  0  0  0  0  0  0  0  0
   -1.7720   14.9560    1.7640 N   0  0  0  0  0  0  0  0  0  0  0  0
  1  2  1  0
  2  3  1  0
  2  4  2  0
  2  5  1  0
  3  6  1  0
  6  7  1  1
  6  8  2  0
  6  9  1  0
  9 10  1  0
 10 11  1  0
 12 11  1  6
 12 13  1  0
 12 14  1  0
 15 13  1  6
 16 14  1  6
 15 16  1  0
 15 17  1  0
 16 18  1  0
 18 19  1  1
 17 20  1  0
 18 21  1  0
 20 21  1  0
M  END
>  <%Rank>  (673) 
51.29771

>  <N_hits>  (673) 
2

>  <submitter_name>  (673) 
nan

>  <original SMILES>  (673) 
nan

>  <∆G_unbound>  (673) 
4.831508

>  <∆G_bound>  (673) 
-8.526436

>  <regarded>  (673) 
mArh-5lw0_A_0_A_β,5CMS_0_I_δ

>  <ref_pdb>  (673) 
nan

>  <smiles>  (673) 
NC1NCNC2NC(CCOP(=O)(O)OP(=O)(O)O)NC12

>  <submitter_email>  (673) 
nan

>  <disregarded>  (673) 


>  <LE>  (673) 
-0.636093

>  <submitter_institution>  (673) 
nan

>  <ref_mols>  (673) 
mArh-5lw0_A_0_A,5CMS_0_I

>  <N_constrained_atoms>  (673) 
19.0

>  <ref_url>  (673) 
nan

>  <method>  (673) 
nan

>  <comRMSD>  (673) 
0.933665

>  <N_unconstrained_atoms>  (673) 
2.0

>  <∆∆G>  (673) 
-13.357944

>  <runtime>  (673) 
34.500652

>  <generation_date>  (673) 
nan

$$$$
5FUD_1_B_α-mArh-6mea_A_0_A_γ
     RDKit          3D

 23 24  0  0  0  0  0  0  0  0999 V2000
   -2.2800   18.8380   -6.7430 O   0  0  0  0  0  0  0  0  0  0  0  0
   -1.3930   19.7220   -7.7290 S   0  0  0  0  0  0  0  0  0  0  0  0
   -0.1930   20.3510   -7.0020 O   0  0  0  0  0  0  0  0  0  0  0  0
   -0.7450   18.7830   -8.8430 O   0  0  0  0  0  0  0  0  0  0  0  0
   -2.3630   21.0190   -8.4570 C   0  0  0  0  0  0  0  0  0  0  0  0
   -2.2790   22.3440   -7.8320 C   0  0  0  0  0  0  0  0  0  0  0  0
    0.8700   19.4730   -6.8670 C   0  0  0  0  0  0  0  0  0  0  0  0
    0.7640   18.6730   -5.5980 C   0  0  0  0  0  0  0  0  0  0  0  0
   -3.6700   22.7490   -7.8020 N   0  0  0  0  0  0  0  0  0  0  0  0
    0.8090   17.2090   -5.7860 C   0  0  0  0  0  0  0  0  0  0  0  0
   -4.2940   22.8900   -9.1360 C   0  0  0  0  0  0  0  0  0  0  0  0
   -3.9270   23.9100   -6.9950 C   0  0  0  0  0  0  0  0  0  0  0  0
    1.0180   16.4610   -4.5140 C   0  0  0  0  0  0  0  0  0  0  0  0
   -5.8120   23.0490   -9.0360 C   0  0  0  0  0  0  0  0  0  0  0  0
   -5.4160   23.9790   -6.8280 C   0  0  0  0  0  0  0  0  0  0  0  0
   -6.1830   24.0270   -8.0550 O   0  0  0  0  0  0  0  0  0  0  0  0
   -0.0400   15.4570   -4.2040 C   0  0  2  0  0  0  0  0  0  0  0  0
   -0.1080   15.2520   -2.7960 O   0  0  0  0  0  0  0  0  0  0  0  0
    0.0730   14.0920   -4.8470 C   0  0  1  0  0  0  0  0  0  0  0  0
    1.3670   13.5360   -4.9470 O   0  0  0  0  0  0  0  0  0  0  0  0
   -0.7850   14.0150   -2.6140 C   0  0  0  0  0  0  0  0  0  0  0  0
   -0.8470   13.2920   -3.9620 C   0  0  1  0  0  0  0  0  0  0  0  0
   -2.1290   13.2350   -4.5440 O   0  0  0  0  0  0  0  0  0  0  0  0
  2  1  1  0
  2  3  1  0
  2  4  1  0
  2  5  1  0
  5  6  1  0
  3  7  1  0
  7  8  1  0
  6  9  1  0
  8 10  1  0
  9 11  1  0
  9 12  1  0
 10 13  1  0
 11 14  1  0
 12 15  1  0
 14 16  1  0
 15 16  1  0
 17 13  1  1
 17 18  1  0
 17 19  1  0
 19 20  1  1
 18 21  1  0
 19 22  1  0
 21 22  1  0
 22 23  1  6
M  END
>  <%Rank>  (674) 
51.374046

>  <N_hits>  (674) 
2

>  <submitter_name>  (674) 
nan

>  <original SMILES>  (674) 
nan

>  <∆G_unbound>  (674) 
0.396564

>  <∆G_bound>  (674) 
-7.434582

>  <regarded>  (674) 
5FUD_1_B_α,mArh-6mea_A_0_A_γ

>  <ref_pdb>  (674) 
nan

>  <smiles>  (674) 
OC1COC(CCCCOS(O)(O)CCN2CCOCC2)C1O

>  <submitter_email>  (674) 
nan

>  <disregarded>  (674) 


>  <LE>  (674) 
-0.340485

>  <submitter_institution>  (674) 
nan

>  <ref_mols>  (674) 
5FUD_1_B,mArh-6mea_A_0_A

>  <N_constrained_atoms>  (674) 
20.0

>  <ref_url>  (674) 
nan

>  <method>  (674) 
nan

>  <comRMSD>  (674) 
0.783286

>  <N_unconstrained_atoms>  (674) 
3.0

>  <∆∆G>  (674) 
-7.831146

>  <runtime>  (674) 
47.51582

>  <generation_date>  (674) 
nan

$$$$
5CMS_0_L_β-4IQY_0_A_γ
     RDKit          3D

 16 16  0  0  0  0  0  0  0  0999 V2000
   -1.4130   20.6880   -8.2820 O   0  0  0  0  0  0  0  0  0  0  0  0
   -0.5270   19.3810   -7.7960 P   0  0  0  0  0  0  0  0  0  0  0  0
   -0.5320   18.9490   -6.2050 O   0  0  0  0  0  0  0  0  0  0  0  0
    0.6720   20.2730   -7.5210 O   0  0  0  0  0  0  0  0  0  0  0  0
    0.1650   18.4720   -8.8930 O   0  0  0  0  0  0  0  0  0  0  0  0
   -1.7120   17.9340   -5.8070 P   0  0  0  0  0  0  0  0  0  0  0  0
   -0.7530   16.6830   -5.7850 O   0  0  0  0  0  0  0  0  0  0  0  0
   -2.6640   17.1440   -6.9340 O   0  0  0  0  0  0  0  0  0  0  0  0
   -2.2140   17.7220   -4.3420 O   0  0  0  0  0  0  0  0  0  0  0  0
   -0.2230   15.9510   -4.6970 C   0  0  1  0  0  0  0  0  0  0  0  0
   -1.1330   15.8200   -3.6580 O   0  0  0  0  0  0  0  0  0  0  0  0
    0.2330   14.5500   -4.9950 C   0  0  1  0  0  0  0  0  0  0  0  0
    1.6200   14.3490   -4.8220 O   0  0  0  0  0  0  0  0  0  0  0  0
   -0.6250   14.8270   -2.8210 C   0  0  0  0  0  0  0  0  0  0  0  0
   -0.3640   13.7270   -3.8450 C   0  0  1  0  0  0  0  0  0  0  0  0
   -1.4950   13.1040   -4.2910 O   0  0  0  0  0  0  0  0  0  0  0  0
  1  2  1  0
  2  3  1  0
  2  4  1  0
  2  5  1  0
  3  6  1  0
  6  7  1  0
  6  8  1  0
  6  9  1  0
 10  7  1  6
 10 11  1  0
 10 12  1  0
 12 13  1  1
 11 14  1  0
 12 15  1  0
 14 15  1  0
 15 16  1  6
M  CHG  2   4  -1   8  -1
M  END
>  <%Rank>  (675) 
51.450382

>  <N_hits>  (675) 
2

>  <submitter_name>  (675) 
nan

>  <original SMILES>  (675) 
nan

>  <∆G_unbound>  (675) 
1.160673

>  <∆G_bound>  (675) 
-4.983731

>  <regarded>  (675) 
5CMS_0_L_β,4IQY_0_A_γ

>  <ref_pdb>  (675) 
nan

>  <smiles>  (675) 
[O-][PH](O)(O)O[PH]([O-])(O)OC1OCC(O)C1O

>  <submitter_email>  (675) 
nan

>  <disregarded>  (675) 


>  <LE>  (675) 
-0.384025

>  <submitter_institution>  (675) 
nan

>  <ref_mols>  (675) 
5CMS_0_L,4IQY_0_A

>  <N_constrained_atoms>  (675) 
16.0

>  <ref_url>  (675) 
nan

>  <method>  (675) 
nan

>  <comRMSD>  (675) 
0.796753

>  <N_unconstrained_atoms>  (675) 
0.0

>  <∆∆G>  (675) 
-6.144404

>  <runtime>  (675) 
36.016782

>  <generation_date>  (675) 
nan

$$$$
mArh-x0905_0_A_α-mArh-x0371_0_A_β
     RDKit          3D

 11 12  0  0  0  0  0  0  0  0999 V2000
   -6.5310   16.2950   -1.0010 O   0  0  0  0  0  0  0  0  0  0  0  0
   -5.8990   15.1130   -0.6180 C   0  0  2  0  0  0  0  0  0  0  0  0
   -5.2190   15.3560    0.6870 N   0  0  0  0  0  0  0  0  0  0  0  0
   -4.9230   14.8340   -1.7180 C   0  0  0  0  0  0  0  0  0  0  0  0
   -6.9530   14.1020   -0.3990 N   0  0  0  0  0  0  0  0  0  0  0  0
   -3.8500   15.2360    0.8220 C   0  0  0  0  0  0  0  0  0  0  0  0
   -3.5910   14.7700   -1.5200 C   0  0  0  0  0  0  0  0  0  0  0  0
   -6.9760   14.0590    0.9200 C   0  0  0  0  0  0  0  0  0  0  0  0
   -6.0690   14.8280    1.6170 N   0  0  0  0  0  0  0  0  0  0  0  0
   -7.9450   13.2050    1.6600 C   0  0  0  0  0  0  0  0  0  0  0  0
   -3.0370   14.9580   -0.1960 C   0  0  0  0  0  0  0  0  0  0  0  0
  2  1  1  6
  2  3  1  0
  2  4  1  0
  2  5  1  0
  3  6  1  0
  4  7  2  0
  5  8  2  0
  3  9  1  0
  8  9  1  0
  8 10  1  0
  6 11  2  0
  7 11  1  0
M  END
>  <%Rank>  (676) 
51.526718

>  <N_hits>  (676) 
2

>  <submitter_name>  (676) 
nan

>  <original SMILES>  (676) 
nan

>  <∆G_unbound>  (676) 
0.030856

>  <∆G_bound>  (676) 
-2.884091

>  <regarded>  (676) 
mArh-x0905_0_A_α,mArh-x0371_0_A_β

>  <ref_pdb>  (676) 
nan

>  <smiles>  (676) 
CC1=NC2(O)C=CC=CN2N1

>  <submitter_email>  (676) 
nan

>  <disregarded>  (676) 


>  <LE>  (676) 
-0.264995

>  <submitter_institution>  (676) 
nan

>  <ref_mols>  (676) 
mArh-x0905_0_A,mArh-x0371_0_A

>  <N_constrained_atoms>  (676) 
11.0

>  <ref_url>  (676) 
nan

>  <method>  (676) 
nan

>  <comRMSD>  (676) 
0.603413

>  <N_unconstrained_atoms>  (676) 
0.0

>  <∆∆G>  (676) 
-2.914947

>  <runtime>  (676) 
26.119543

>  <generation_date>  (676) 
nan

$$$$
5CB5_0_F_α-mArh-5cms_B_1_B_γ
     RDKit          3D

 25 26  0  0  0  0  0  0  0  0999 V2000
   -1.9750   21.3490   -8.6050 C   0  0  0  0  0  0  0  0  0  0  0  0
   -3.2720   21.6740   -9.3020 C   0  0  2  0  0  0  0  0  0  0  0  0
   -3.6120   23.1160   -9.2210 C   0  0  1  0  0  0  0  0  0  0  0  0
   -4.3820   21.0190   -8.6650 O   0  0  0  0  0  0  0  0  0  0  0  0
   -4.6150   23.5360  -10.1420 O   0  0  0  0  0  0  0  0  0  0  0  0
   -4.0100   23.1620   -7.8120 C   0  0  2  0  0  0  0  0  0  0  0  0
   -4.8450   21.8710   -7.6300 C   0  0  2  0  0  0  0  0  0  0  0  0
   -4.7130   24.3150   -7.6440 O   0  0  0  0  0  0  0  0  0  0  0  0
   -4.5990   21.1720   -6.3940 O   0  0  0  0  0  0  0  0  0  0  0  0
   -5.1590   24.3900   -6.3840 C   0  0  1  0  0  0  0  0  0  0  0  0
   -3.2200   21.1390   -5.9800 C   0  0  0  0  0  0  0  0  0  0  0  0
   -4.5160   25.5930   -5.7410 C   0  0  0  0  0  0  0  0  0  0  0  0
   -6.5040   24.5300   -6.6660 O   0  0  0  0  0  0  0  0  0  0  0  0
   -2.5590   19.7660   -6.2330 C   0  0  0  0  0  0  0  0  0  0  0  0
   -1.1970   19.7880   -6.9720 C   0  0  0  0  0  0  0  0  0  0  0  0
   -0.1440   18.7450   -6.5660 C   0  0  0  0  0  0  0  0  0  0  0  0
   -0.4220   17.9950   -5.2610 C   0  0  0  0  0  0  0  0  0  0  0  0
    0.4220   16.7480   -4.9930 C   0  0  0  0  0  0  0  0  0  0  0  0
   -0.3460   15.6030   -4.3280 C   0  0  2  0  0  0  0  0  0  0  0  0
    0.2460   15.3410   -3.0410 O   0  0  0  0  0  0  0  0  0  0  0  0
   -0.3750   14.2340   -5.0120 C   0  0  1  0  0  0  0  0  0  0  0  0
    0.9200   13.8060   -5.4640 O   0  0  0  0  0  0  0  0  0  0  0  0
   -0.2160   14.0420   -2.6230 C   0  0  0  0  0  0  0  0  0  0  0  0
   -0.8260   13.3590   -3.8510 C   0  0  2  0  0  0  0  0  0  0  0  0
   -0.3100   12.0360   -3.9960 O   0  0  0  0  0  0  0  0  0  0  0  0
  2  1  1  1
  2  3  1  0
  2  4  1  0
  3  5  1  6
  3  6  1  0
  4  7  1  0
  6  7  1  0
  6  8  1  6
  7  9  1  1
  8 10  1  0
  9 11  1  0
 10 12  1  6
 10 13  1  0
 11 14  1  0
 14 15  1  0
 15 16  1  0
 16 17  1  0
 17 18  1  0
 19 18  1  6
 19 20  1  0
 19 21  1  0
 21 22  1  1
 20 23  1  0
 21 24  1  0
 23 24  1  0
 24 25  1  6
M  END
>  <%Rank>  (677) 
51.603053

>  <N_hits>  (677) 
2

>  <submitter_name>  (677) 
nan

>  <original SMILES>  (677) 
nan

>  <∆G_unbound>  (677) 
0.969165

>  <∆G_bound>  (677) 
-7.364185

>  <regarded>  (677) 
5CB5_0_F_α,mArh-5cms_B_1_B_γ

>  <ref_pdb>  (677) 
nan

>  <smiles>  (677) 
CC1OC(OCCCCCCC2OCC(O)C2O)C(O[C@@H](C)O)C1O

>  <submitter_email>  (677) 
nan

>  <disregarded>  (677) 


>  <LE>  (677) 
-0.333334

>  <submitter_institution>  (677) 
nan

>  <ref_mols>  (677) 
5CB5_0_F,mArh-5cms_B_1_B

>  <N_constrained_atoms>  (677) 
20.0

>  <ref_url>  (677) 
nan

>  <method>  (677) 
nan

>  <comRMSD>  (677) 
0.731683

>  <N_unconstrained_atoms>  (677) 
5.0

>  <∆∆G>  (677) 
-8.33335

>  <runtime>  (677) 
38.852912

>  <generation_date>  (677) 
nan

$$$$
mArh-5cms_R_17_R_β-5CB5_0_N_β
     RDKit          3D

  9  8  0  0  0  0  0  0  0  0999 V2000
   -1.2460   20.5790   -8.7860 O   0  0  0  0  0  0  0  0  0  0  0  0
   -0.3110   19.7510   -7.8060 P   0  0  0  0  0  0  0  0  0  0  0  0
   -1.2550   19.4210   -6.6010 O   0  0  0  0  0  0  0  0  0  0  0  0
    0.9640   20.4350   -7.5260 O   0  0  0  0  0  0  0  0  0  0  0  0
   -0.1150   18.4300   -8.6930 O   0  0  0  0  0  0  0  0  0  0  0  0
   -1.6660   18.0080   -6.0480 P   0  0  0  0  0  0  0  0  0  0  0  0
   -0.3310   17.1500   -6.0330 O   0  0  0  0  0  0  0  0  0  0  0  0
   -2.7790   17.3800   -6.7850 O   0  0  0  0  0  0  0  0  0  0  0  0
   -1.9190   18.2390   -4.5100 O   0  0  0  0  0  0  0  0  0  0  0  0
  1  2  1  0
  2  3  1  0
  2  4  2  0
  2  5  1  0
  3  6  1  0
  6  7  1  0
  6  8  2  0
  6  9  1  0
M  END
>  <%Rank>  (678) 
51.679389

>  <N_hits>  (678) 
2

>  <submitter_name>  (678) 
nan

>  <original SMILES>  (678) 
nan

>  <∆G_unbound>  (678) 
0.687887

>  <∆G_bound>  (678) 
-6.579386

>  <regarded>  (678) 
mArh-5cms_R_17_R_β,5CB5_0_N_β

>  <ref_pdb>  (678) 
nan

>  <smiles>  (678) 
O=P(O)(O)OP(=O)(O)O

>  <submitter_email>  (678) 
nan

>  <disregarded>  (678) 


>  <LE>  (678) 
-0.807475

>  <submitter_institution>  (678) 
nan

>  <ref_mols>  (678) 
mArh-5cms_R_17_R,5CB5_0_N

>  <N_constrained_atoms>  (678) 
9.0

>  <ref_url>  (678) 
nan

>  <method>  (678) 
nan

>  <comRMSD>  (678) 
0.809382

>  <N_unconstrained_atoms>  (678) 
0.0

>  <∆∆G>  (678) 
-7.267273

>  <runtime>  (678) 
23.909029

>  <generation_date>  (678) 
nan

$$$$
5CMS_0_M_β-mArh-x0574_0_A_α
     RDKit          3D

 25 26  0  0  0  0  0  0  0  0999 V2000
   -1.7990   20.7080   -8.2460 O   0  0  0  0  0  0  0  0  0  0  0  0
   -0.7000   19.4990   -7.8420 P   0  0  0  0  0  0  0  0  0  0  0  0
   -0.6320   18.9390   -6.3500 O   0  0  0  0  0  0  0  0  0  0  0  0
    0.2050   18.7570   -8.9430 O   0  0  0  0  0  0  0  0  0  0  0  0
    0.3910   20.5040   -7.7180 O   0  0  0  0  0  0  0  0  0  0  0  0
   -1.6880   17.9780   -5.8330 P   0  0  0  0  0  0  0  0  0  0  0  0
   -0.5570   16.7770   -5.7050 O   0  0  0  0  0  0  0  0  0  0  0  0
   -2.5340   18.1360   -7.2470 O   0  0  0  0  0  0  0  0  0  0  0  0
   -2.0590   18.9820   -4.6560 O   0  0  0  0  0  0  0  0  0  0  0  0
   -0.9530   15.8480   -4.7970 C   0  0  0  0  0  0  0  0  0  0  0  0
   -1.1260   16.5990   -3.5140 C   0  0  0  0  0  0  0  0  0  0  0  0
   -1.6420   15.6960   -2.4620 C   0  0  0  0  0  0  0  0  0  0  0  0
   -3.1250   15.4220   -2.5960 C   0  0  0  0  0  0  0  0  0  0  0  0
   -3.6430   15.1650   -1.2310 C   0  0  0  0  0  0  0  0  0  0  0  0
   -2.6950   14.8950   -0.2460 C   0  0  0  0  0  0  0  0  0  0  0  0
   -4.9900   15.1730   -0.9120 C   0  0  0  0  0  0  0  0  0  0  0  0
   -5.3300   14.9000    0.3990 C   0  0  0  0  0  0  0  0  0  0  0  0
   -3.0410   14.6230    1.0470 C   0  0  0  0  0  0  0  0  0  0  0  0
   -0.9870   14.7830   -0.1590 S   0  0  0  0  0  0  0  0  0  0  0  0
   -6.6870   14.8790    0.8040 O   0  0  0  0  0  0  0  0  0  0  0  0
   -4.3970   14.6370    1.3420 C   0  0  0  0  0  0  0  0  0  0  0  0
   -2.1040   14.3740    1.8690 N   0  0  0  0  0  0  0  0  0  0  0  0
   -0.8840   14.3620    1.5030 C   0  0  0  0  0  0  0  0  0  0  0  0
    0.2360   14.0720    2.2730 N   0  0  0  0  0  0  0  0  0  0  0  0
   -6.9540   14.6150    2.1700 C   0  0  0  0  0  0  0  0  0  0  0  0
  1  2  1  0
  2  3  1  0
  2  4  1  0
  2  5  1  0
  3  6  1  0
  6  7  1  0
  6  8  1  0
  6  9  1  0
  7 10  1  0
 10 11  1  0
 11 12  1  0
 12 13  1  0
 13 14  1  0
 14 15  2  0
 14 16  1  0
 16 17  2  0
 15 18  1  0
 15 19  1  0
 17 20  1  0
 17 21  1  0
 18 21  2  0
 18 22  1  0
 19 23  1  0
 22 23  2  0
 23 24  1  0
 20 25  1  0
M  CHG  2   4  -1   8  -1
M  END
>  <%Rank>  (679) 
51.755725

>  <N_hits>  (679) 
2

>  <submitter_name>  (679) 
nan

>  <original SMILES>  (679) 
nan

>  <∆G_unbound>  (679) 
0.564965

>  <∆G_bound>  (679) 
-13.396629

>  <regarded>  (679) 
5CMS_0_M_β,mArh-x0574_0_A_α

>  <ref_pdb>  (679) 
nan

>  <smiles>  (679) 
COc1cc(CCCCO[PH]([O-])(O)O[PH]([O-])(O)O)c2sc(N)nc2c1

>  <submitter_email>  (679) 
nan

>  <disregarded>  (679) 


>  <LE>  (679) 
-0.558464

>  <submitter_institution>  (679) 
nan

>  <ref_mols>  (679) 
5CMS_0_M,mArh-x0574_0_A

>  <N_constrained_atoms>  (679) 
21.0

>  <ref_url>  (679) 
nan

>  <method>  (679) 
nan

>  <comRMSD>  (679) 
0.893453

>  <N_unconstrained_atoms>  (679) 
4.0

>  <∆∆G>  (679) 
-13.961594

>  <runtime>  (679) 
47.586794

>  <generation_date>  (679) 
nan

$$$$
5CB5_0_O_β-5CB3_0_A_δ
     RDKit          3D

 21 22  0  0  0  0  0  0  0  0999 V2000
   -1.3910   20.6490   -8.9950 O   0  0  0  0  0  0  0  0  0  0  0  0
   -0.7810   19.9290   -7.8050 P   0  0  0  0  0  0  0  0  0  0  0  0
   -0.4340   19.0910   -6.5880 O   0  0  0  0  0  0  0  0  0  0  0  0
    0.3800   21.0380   -7.6190 O   0  0  0  0  0  0  0  0  0  0  0  0
   -0.3450   18.6160   -8.7360 O   0  0  0  0  0  0  0  0  0  0  0  0
   -1.1920   17.9200   -5.9470 P   0  0  0  0  0  0  0  0  0  0  0  0
   -1.7930   16.6330   -5.3440 O   0  0  0  0  0  0  0  0  0  0  0  0
   -2.3100   17.8980   -7.1400 O   0  0  0  0  0  0  0  0  0  0  0  0
   -1.6180   18.7800   -4.6450 O   0  0  0  0  0  0  0  0  0  0  0  0
   -1.2470   16.1440   -4.1430 C   0  0  0  0  0  0  0  0  0  0  0  0
   -2.3140   15.9390   -3.1150 C   0  0  0  0  0  0  0  0  0  0  0  0
   -2.1520   14.7200   -2.3140 N   0  0  0  0  0  0  0  0  0  0  0  0
   -1.7470   15.0990   -0.9780 C   0  0  1  0  0  0  0  0  0  0  0  0
   -3.5140   14.2410   -2.1970 C   0  0  0  0  0  0  0  0  0  0  0  0
   -2.8070   14.3470   -0.1550 C   0  0  2  0  0  0  0  0  0  0  0  0
   -3.9520   14.7260   -0.8850 N   0  0  0  0  0  0  0  0  0  0  0  0
   -0.4590   14.5780   -0.5590 N   0  0  0  0  0  0  0  0  0  0  0  0
   -0.3760   14.7630    0.8840 C   0  0  0  0  0  0  0  0  0  0  0  0
   -2.7490   14.8270    1.2700 C   0  0  2  0  0  0  0  0  0  0  0  0
   -3.8630   15.7580    1.4720 N   0  0  0  0  0  0  0  0  0  0  0  0
   -1.4840   15.5050    1.3770 N   0  0  0  0  0  0  0  0  0  0  0  0
  1  2  1  0
  2  3  1  0
  2  4  1  0
  2  5  1  0
  3  6  1  0
  6  7  1  0
  6  8  1  0
  6  9  1  0
  7 10  1  0
 10 11  1  0
 11 12  1  0
 12 13  1  0
 12 14  1  0
 13 15  1  0
 14 16  1  0
 15 16  1  6
 13 17  1  1
 17 18  1  0
 15 19  1  0
 19 20  1  6
 18 21  1  0
 19 21  1  0
M  CHG  2   4  -1   8  -1
M  END
>  <%Rank>  (680) 
51.832061

>  <N_hits>  (680) 
2

>  <submitter_name>  (680) 
nan

>  <original SMILES>  (680) 
nan

>  <∆G_unbound>  (680) 
0.88229

>  <∆G_bound>  (680) 
-6.813503

>  <regarded>  (680) 
5CB5_0_O_β,5CB3_0_A_δ

>  <ref_pdb>  (680) 
nan

>  <smiles>  (680) 
NC1NCNC2C1NCN2CCO[PH]([O-])(O)O[PH]([O-])(O)O

>  <submitter_email>  (680) 
nan

>  <disregarded>  (680) 


>  <LE>  (680) 
-0.366466

>  <submitter_institution>  (680) 
nan

>  <ref_mols>  (680) 
5CB5_0_O,5CB3_0_A

>  <N_constrained_atoms>  (680) 
19.0

>  <ref_url>  (680) 
nan

>  <method>  (680) 
nan

>  <comRMSD>  (680) 
0.803395

>  <N_unconstrained_atoms>  (680) 
2.0

>  <∆∆G>  (680) 
-7.695793

>  <runtime>  (680) 
38.769014

>  <generation_date>  (680) 
nan

$$$$
5CB5_0_I_α-mArh-x0918_0_B_α
     RDKit          3D

 20 21  0  0  0  0  0  0  0  0999 V2000
   -1.7410   22.0340   -8.0400 C   0  0  0  0  0  0  0  0  0  0  0  0
   -3.1490   21.9920   -8.6290 C   0  0  1  0  0  0  0  0  0  0  0  0
   -3.8800   21.1070   -7.7970 O   0  0  0  0  0  0  0  0  0  0  0  0
   -3.9180   23.3200   -8.5990 C   0  0  1  0  0  0  0  0  0  0  0  0
   -4.9610   23.4680   -9.5760 O   0  0  0  0  0  0  0  0  0  0  0  0
   -4.9910   21.8130   -7.2350 C   0  0  2  0  0  0  0  0  0  0  0  0
   -4.5260   23.2440   -7.2000 C   0  0  2  0  0  0  0  0  0  0  0  0
   -5.2950   21.3330   -5.9360 O   0  0  0  0  0  0  0  0  0  0  0  0
   -5.6770   24.0930   -6.9910 O   0  0  0  0  0  0  0  0  0  0  0  0
   -6.0030   24.3880   -9.2600 C   0  0  0  0  0  0  0  0  0  0  0  0
   -6.8480   24.6470  -10.5090 C   0  0  0  0  0  0  0  0  0  0  0  0
   -6.8300   26.0780  -11.0500 C   0  0  0  0  0  0  0  0  0  0  0  0
   -5.6400   26.3960  -11.9660 C   0  0  0  0  0  0  0  0  0  0  0  0
   -5.6630   27.7420  -12.6640 C   0  0  0  0  0  0  0  0  0  0  0  0
   -6.8430   28.4090  -12.6920 N   0  0  0  0  0  0  0  0  0  0  0  0
   -4.5050   28.2450  -13.2590 C   0  0  0  0  0  0  0  0  0  0  0  0
   -4.5530   29.4630  -13.9240 C   0  0  0  0  0  0  0  0  0  0  0  0
   -6.8640   29.5890  -13.3430 C   0  0  0  0  0  0  0  0  0  0  0  0
   -3.4050   29.9850  -14.5360 N   0  0  0  0  0  0  0  0  0  0  0  0
   -5.7610   30.1420  -13.9700 C   0  0  0  0  0  0  0  0  0  0  0  0
  2  1  1  1
  2  3  1  0
  2  4  1  0
  4  5  1  6
  3  6  1  0
  4  7  1  0
  6  7  1  0
  6  8  1  1
  7  9  1  6
  5 10  1  0
 10 11  1  0
 11 12  1  0
 12 13  1  0
 13 14  1  0
 14 15  2  0
 14 16  1  0
 16 17  2  0
 15 18  1  0
 17 19  1  0
 17 20  1  0
 18 20  2  0
M  END
>  <%Rank>  (681) 
51.908397

>  <N_hits>  (681) 
2

>  <submitter_name>  (681) 
nan

>  <original SMILES>  (681) 
nan

>  <∆G_unbound>  (681) 
1.293544

>  <∆G_bound>  (681) 
-7.44984

>  <regarded>  (681) 
5CB5_0_I_α,mArh-x0918_0_B_α

>  <ref_pdb>  (681) 
nan

>  <smiles>  (681) 
CC1OC(O)C(O)C1OCCCCc1cc(N)ccn1

>  <submitter_email>  (681) 
nan

>  <disregarded>  (681) 


>  <LE>  (681) 
-0.437169

>  <submitter_institution>  (681) 
nan

>  <ref_mols>  (681) 
5CB5_0_I,mArh-x0918_0_B

>  <N_constrained_atoms>  (681) 
16.0

>  <ref_url>  (681) 
nan

>  <method>  (681) 
nan

>  <comRMSD>  (681) 
0.703724

>  <N_unconstrained_atoms>  (681) 
4.0

>  <∆∆G>  (681) 
-8.743383

>  <runtime>  (681) 
36.883707

>  <generation_date>  (681) 
nan

$$$$
mArh-3vfq_B_0_A_α-mArh-6woj_D_0_D_β
     RDKit          3D

 21 21  0  0  0  0  0  0  0  0999 V2000
   -4.3350   20.2290   -6.9820 C   0  0  0  0  0  0  0  0  0  0  0  0
   -4.6260   21.4450   -7.8120 C   0  0  1  0  0  0  0  0  0  0  0  0
   -4.0330   21.3690   -9.1030 O   0  0  0  0  0  0  0  0  0  0  0  0
   -6.0820   21.7890   -8.0230 C   0  0  1  0  0  0  0  0  0  0  0  0
   -6.3280   22.9420   -7.2420 O   0  0  0  0  0  0  0  0  0  0  0  0
   -4.6700   22.4050   -9.8050 C   0  0  1  0  0  0  0  0  0  0  0  0
   -6.1640   22.1640   -9.4920 C   0  0  2  0  0  0  0  0  0  0  0  0
   -4.2250   23.6840   -9.3050 O   0  0  0  0  0  0  0  0  0  0  0  0
   -6.9600   23.3310   -9.6660 O   0  0  0  0  0  0  0  0  0  0  0  0
   -3.1620   23.6670   -8.3040 C   0  0  0  0  0  0  0  0  0  0  0  0
   -2.8090   22.3120   -7.6910 C   0  0  0  0  0  0  0  0  0  0  0  0
   -1.7410   21.5450   -8.4510 C   0  0  0  0  0  0  0  0  0  0  0  0
   -1.5110   20.3050   -7.7940 O   0  0  0  0  0  0  0  0  0  0  0  0
   -0.0150   19.7740   -7.6040 P   0  0  2  0  0  0  0  0  0  0  0  0
   -0.0180   18.8360   -6.3350 O   0  0  0  0  0  0  0  0  0  0  0  0
    1.0560   20.8180   -7.6240 O   0  0  0  0  0  0  0  0  0  0  0  0
    0.1270   18.6970   -8.7820 O   0  0  0  0  0  0  0  0  0  0  0  0
   -1.2730   18.1950   -5.6400 P   0  0  0  0  0  0  0  0  0  0  0  0
   -0.8910   16.6850   -5.3400 O   0  0  0  0  0  0  0  0  0  0  0  0
   -1.8470   18.9520   -4.5180 O   0  0  0  0  0  0  0  0  0  0  0  0
   -2.3780   17.9980   -6.7800 O   0  0  0  0  0  0  0  0  0  0  0  0
  2  1  1  6
  2  3  1  0
  2  4  1  0
  4  5  1  1
  3  6  1  0
  4  7  1  0
  6  7  1  0
  6  8  1  1
  7  9  1  1
  8 10  1  0
 10 11  1  0
 11 12  1  0
 12 13  1  0
 13 14  1  0
 14 15  1  0
 14 16  2  0
 14 17  1  6
 15 18  1  0
 18 19  1  0
 18 20  2  0
 18 21  1  0
M  END
>  <%Rank>  (682) 
51.984733

>  <N_hits>  (682) 
2

>  <submitter_name>  (682) 
nan

>  <original SMILES>  (682) 
nan

>  <∆G_unbound>  (682) 
0.275418

>  <∆G_bound>  (682) 
-7.940525

>  <regarded>  (682) 
mArh-3vfq_B_0_A_α,mArh-6woj_D_0_D_β

>  <ref_pdb>  (682) 
nan

>  <smiles>  (682) 
CC1OC(OCCCOP(=O)(O)OP(=O)(O)O)C(O)C1O

>  <submitter_email>  (682) 
nan

>  <disregarded>  (682) 


>  <LE>  (682) 
-0.391235

>  <submitter_institution>  (682) 
nan

>  <ref_mols>  (682) 
mArh-3vfq_B_0_A,mArh-6woj_D_0_D

>  <N_constrained_atoms>  (682) 
18.0

>  <ref_url>  (682) 
nan

>  <method>  (682) 
nan

>  <comRMSD>  (682) 
0.766632

>  <N_unconstrained_atoms>  (682) 
3.0

>  <∆∆G>  (682) 
-8.215943

>  <runtime>  (682) 
52.397075

>  <generation_date>  (682) 
nan

$$$$
5L9K_0_A_δ-mArh-EU0123_0_A_α
     RDKit          3D

 18 20  0  0  0  0  0  0  0  0999 V2000
   -4.3750   15.4070    1.5360 N   0  0  0  0  0  0  0  0  0  0  0  0
   -3.0650   14.9530    1.0940 C   0  0  1  0  0  0  0  0  0  0  0  0
   -3.0570   15.2690   -0.4100 C   0  0  1  0  0  0  0  0  0  0  0  0
   -5.3730   15.2740    0.5490 C   0  0  0  0  0  0  0  0  0  0  0  0
   -1.8080   15.4220    1.6510 N   0  0  0  0  0  0  0  0  0  0  0  0
   -5.2260   15.7550   -0.7620 C   0  0  0  0  0  0  0  0  0  0  0  0
   -6.5990   14.6380    0.8330 C   0  0  0  0  0  0  0  0  0  0  0  0
   -6.9600   14.0760    2.1590 C   0  0  0  0  0  0  0  0  0  0  0  0
   -1.8130   14.6680   -0.9880 C   0  0  1  0  0  0  0  0  0  0  0  0
   -4.0500   14.6920   -1.3160 N   0  0  0  0  0  0  0  0  0  0  0  0
   -0.6470   14.8090    1.0350 C   0  0  0  0  0  0  0  0  0  0  0  0
   -6.2490   15.5820   -1.6820 C   0  0  0  0  0  0  0  0  0  0  0  0
   -7.5510   14.5240   -0.1680 C   0  0  0  0  0  0  0  0  0  0  0  0
   -6.7480   15.0330    3.1840 O   0  0  0  0  0  0  0  0  0  0  0  0
   -1.9730   15.0690   -2.3580 N   0  0  0  0  0  0  0  0  0  0  0  0
   -3.4140   14.9730   -2.6020 C   0  0  0  0  0  0  0  0  0  0  0  0
   -0.6310   15.1660   -0.3640 N   0  0  0  0  0  0  0  0  0  0  0  0
   -7.4100   14.9770   -1.4180 N   0  0  0  0  0  0  0  0  0  0  0  0
  2  1  1  1
  2  3  1  0
  1  4  1  0
  2  5  1  0
  4  6  2  0
  4  7  1  0
  7  8  1  0
  3  9  1  0
  3 10  1  6
  5 11  1  0
  6 12  1  0
  7 13  2  0
  8 14  1  0
  9 15  1  6
 10 16  1  0
 15 16  1  0
  9 17  1  0
 11 17  1  0
 12 18  2  0
 13 18  1  0
M  END
>  <%Rank>  (683) 
52.061069

>  <N_hits>  (683) 
2

>  <submitter_name>  (683) 
nan

>  <original SMILES>  (683) 
nan

>  <∆G_unbound>  (683) 
0.699436

>  <∆G_bound>  (683) 
-1.122042

>  <regarded>  (683) 
5L9K_0_A_δ,mArh-EU0123_0_A_α

>  <ref_pdb>  (683) 
nan

>  <smiles>  (683) 
OCc1cnccc1NC1NCNC2NCNC21

>  <submitter_email>  (683) 
nan

>  <disregarded>  (683) 


>  <LE>  (683) 
-0.101193

>  <submitter_institution>  (683) 
nan

>  <ref_mols>  (683) 
5L9K_0_A,mArh-EU0123_0_A

>  <N_constrained_atoms>  (683) 
18.0

>  <ref_url>  (683) 
nan

>  <method>  (683) 
nan

>  <comRMSD>  (683) 
0.705041

>  <N_unconstrained_atoms>  (683) 
0.0

>  <∆∆G>  (683) 
-1.821478

>  <runtime>  (683) 
27.105168

>  <generation_date>  (683) 
nan

$$$$
5CMS_0_O_β-6MEA_0_A_δ
     RDKit          3D

 21 22  0  0  0  0  0  0  0  0999 V2000
   -1.2170   20.6930   -8.8580 O   0  0  0  0  0  0  0  0  0  0  0  0
   -0.7460   19.8010   -7.7170 P   0  0  0  0  0  0  0  0  0  0  0  0
   -0.5120   18.8280   -6.5640 O   0  0  0  0  0  0  0  0  0  0  0  0
    0.5910   20.6680   -7.4720 O   0  0  0  0  0  0  0  0  0  0  0  0
   -0.5060   18.5070   -8.7220 O   0  0  0  0  0  0  0  0  0  0  0  0
   -1.3930   17.7980   -5.8360 P   0  0  0  0  0  0  0  0  0  0  0  0
   -2.1020   16.6440   -5.0870 O   0  0  0  0  0  0  0  0  0  0  0  0
   -2.4230   17.6120   -7.0820 O   0  0  0  0  0  0  0  0  0  0  0  0
   -1.8850   18.8780   -4.7470 O   0  0  0  0  0  0  0  0  0  0  0  0
   -1.3120   15.7410   -4.3480 C   0  0  0  0  0  0  0  0  0  0  0  0
   -1.4220   15.9730   -2.8710 C   0  0  0  0  0  0  0  0  0  0  0  0
   -1.8120   14.7510   -2.1400 N   0  0  0  0  0  0  0  0  0  0  0  0
   -1.4510   14.9150   -0.7610 C   0  0  1  0  0  0  0  0  0  0  0  0
   -3.2630   14.7500   -2.1810 C   0  0  0  0  0  0  0  0  0  0  0  0
   -2.6850   14.2820   -0.1010 C   0  0  2  0  0  0  0  0  0  0  0  0
   -3.6940   14.9810   -0.7940 N   0  0  0  0  0  0  0  0  0  0  0  0
   -0.3210   14.1420   -0.3010 N   0  0  0  0  0  0  0  0  0  0  0  0
   -0.2230   14.4540    1.1170 C   0  0  0  0  0  0  0  0  0  0  0  0
   -2.6130   14.5620    1.3740 C   0  0  2  0  0  0  0  0  0  0  0  0
   -3.6950   15.4960    1.6850 N   0  0  0  0  0  0  0  0  0  0  0  0
   -1.3490   15.2050    1.5530 N   0  0  0  0  0  0  0  0  0  0  0  0
  1  2  1  0
  2  3  1  0
  2  4  1  0
  2  5  1  0
  3  6  1  0
  6  7  1  0
  6  8  1  0
  6  9  1  0
  7 10  1  0
 10 11  1  0
 11 12  1  0
 12 13  1  0
 12 14  1  0
 13 15  1  0
 14 16  1  0
 15 16  1  6
 13 17  1  6
 17 18  1  0
 15 19  1  0
 19 20  1  6
 18 21  1  0
 19 21  1  0
M  CHG  2   4  -1   8  -1
M  END
>  <%Rank>  (684) 
52.137405

>  <N_hits>  (684) 
2

>  <submitter_name>  (684) 
nan

>  <original SMILES>  (684) 
nan

>  <∆G_unbound>  (684) 
0.88229

>  <∆G_bound>  (684) 
-6.29105

>  <regarded>  (684) 
5CMS_0_O_β,6MEA_0_A_δ

>  <ref_pdb>  (684) 
nan

>  <smiles>  (684) 
NC1NCNC2C1NCN2CCO[PH]([O-])(O)O[PH]([O-])(O)O

>  <submitter_email>  (684) 
nan

>  <disregarded>  (684) 


>  <LE>  (684) 
-0.341588

>  <submitter_institution>  (684) 
nan

>  <ref_mols>  (684) 
5CMS_0_O,6MEA_0_A

>  <N_constrained_atoms>  (684) 
19.0

>  <ref_url>  (684) 
nan

>  <method>  (684) 
nan

>  <comRMSD>  (684) 
0.793542

>  <N_unconstrained_atoms>  (684) 
2.0

>  <∆∆G>  (684) 
-7.17334

>  <runtime>  (684) 
27.268445

>  <generation_date>  (684) 
nan

$$$$
5CB5_0_J_β-mArh-6woj_B_0_B_α
     RDKit          3D

 17 17  0  0  0  0  0  0  0  0999 V2000
   -1.8560   21.2430   -8.8340 O   0  0  0  0  0  0  0  0  0  0  0  0
   -0.6940   20.2980   -8.0030 P   0  0  0  0  0  0  0  0  0  0  0  0
   -1.0760   19.7660   -6.5160 O   0  0  0  0  0  0  0  0  0  0  0  0
   -3.1300   21.6280   -8.2830 C   0  0  1  0  0  0  0  0  0  0  0  0
   -0.1450   21.5980   -7.4410 O   0  0  0  0  0  0  0  0  0  0  0  0
   -1.0860   18.9760   -8.6340 O   0  0  0  0  0  0  0  0  0  0  0  0
   -3.5100   21.0720   -7.0980 O   0  0  0  0  0  0  0  0  0  0  0  0
   -3.2680   23.1710   -7.9580 C   0  0  1  0  0  0  0  0  0  0  0  0
   -1.2950   18.3240   -6.0080 P   0  0  0  0  0  0  0  0  0  0  0  0
   -4.0330   23.7440   -8.9740 O   0  0  0  0  0  0  0  0  0  0  0  0
   -4.6150   21.7710   -6.7000 C   0  0  2  0  0  0  0  0  0  0  0  0
   -4.1290   23.1740   -6.6570 C   0  0  2  0  0  0  0  0  0  0  0  0
   -1.3590   16.8960   -5.4520 O   0  0  0  0  0  0  0  0  0  0  0  0
   -2.5000   18.0350   -7.0770 O   0  0  0  0  0  0  0  0  0  0  0  0
   -1.7300   18.9690   -4.5730 O   0  0  0  0  0  0  0  0  0  0  0  0
   -5.2120   21.3980   -5.5110 O   0  0  0  0  0  0  0  0  0  0  0  0
   -5.1940   24.0920   -6.7850 O   0  0  0  0  0  0  0  0  0  0  0  0
  1  2  1  0
  2  3  1  0
  4  1  1  1
  2  5  1  0
  2  6  1  0
  4  7  1  0
  4  8  1  0
  3  9  1  0
  8 10  1  6
  7 11  1  0
  8 12  1  0
 11 12  1  0
  9 13  1  0
  9 14  1  0
  9 15  1  0
 11 16  1  1
 12 17  1  6
M  CHG  2   5  -1  14  -1
M  END
>  <%Rank>  (685) 
52.21374

>  <N_hits>  (685) 
2

>  <submitter_name>  (685) 
nan

>  <original SMILES>  (685) 
nan

>  <∆G_unbound>  (685) 
0.972863

>  <∆G_bound>  (685) 
-7.449211

>  <regarded>  (685) 
5CB5_0_J_β,mArh-6woj_B_0_B_α

>  <ref_pdb>  (685) 
nan

>  <smiles>  (685) 
[O-][PH](O)(O)O[PH]([O-])(O)OC1OC(O)C(O)C1O

>  <submitter_email>  (685) 
nan

>  <disregarded>  (685) 


>  <LE>  (685) 
-0.495416

>  <submitter_institution>  (685) 
nan

>  <ref_mols>  (685) 
5CB5_0_J,mArh-6woj_B_0_B

>  <N_constrained_atoms>  (685) 
17.0

>  <ref_url>  (685) 
nan

>  <method>  (685) 
nan

>  <comRMSD>  (685) 
0.88172

>  <N_unconstrained_atoms>  (685) 
0.0

>  <∆∆G>  (685) 
-8.422074

>  <runtime>  (685) 
56.921052

>  <generation_date>  (685) 
nan

$$$$
5CMS_0_E_δ-5L9K_0_A_β
     RDKit          3D

 21 22  0  0  0  0  0  0  0  0999 V2000
   -3.8720   15.4540    1.5880 N   0  0  0  0  0  0  0  0  0  0  0  0
   -2.7520   14.7620    0.9460 C   0  0  1  0  0  0  0  0  0  0  0  0
   -2.6270   15.2970   -0.4310 C   0  0  1  0  0  0  0  0  0  0  0  0
   -1.5580   15.1560    1.6240 N   0  0  0  0  0  0  0  0  0  0  0  0
   -1.2820   15.0100   -1.0090 C   0  0  2  0  0  0  0  0  0  0  0  0
   -3.5510   14.7600   -1.3700 N   0  0  0  0  0  0  0  0  0  0  0  0
   -0.3360   14.6010    1.1290 C   0  0  0  0  0  0  0  0  0  0  0  0
   -1.4510   14.5070   -2.3020 N   0  0  0  0  0  0  0  0  0  0  0  0
   -2.8590   14.5430   -2.6460 C   0  0  2  0  0  0  0  0  0  0  0  0
   -0.6250   13.9980   -0.1670 N   0  0  0  0  0  0  0  0  0  0  0  0
   -3.2040   15.6110   -3.6400 C   0  0  0  0  0  0  0  0  0  0  0  0
   -2.0420   16.3200   -4.2820 C   0  0  0  0  0  0  0  0  0  0  0  0
   -2.2070   17.6870   -4.3460 O   0  0  0  0  0  0  0  0  0  0  0  0
   -1.9440   18.2180   -5.9060 P   0  0  0  0  0  0  0  0  0  0  0  0
   -1.3700   19.6110   -6.2820 O   0  0  0  0  0  0  0  0  0  0  0  0
   -0.8010   17.3310   -6.1040 O   0  0  0  0  0  0  0  0  0  0  0  0
   -2.9410   17.3270   -6.9660 O   0  0  0  0  0  0  0  0  0  0  0  0
   -0.9760   20.2340   -7.6970 P   0  0  0  0  0  0  0  0  0  0  0  0
   -2.0220   20.8320   -8.7770 O   0  0  0  0  0  0  0  0  0  0  0  0
   -0.7300   18.9010   -8.4190 O   0  0  0  0  0  0  0  0  0  0  0  0
    0.6470   20.5480   -7.9260 O   0  0  0  0  0  0  0  0  0  0  0  0
  2  1  1  1
  2  3  1  0
  2  4  1  0
  3  5  1  0
  3  6  1  6
  4  7  1  0
  5  8  1  6
  6  9  1  0
  8  9  1  0
  5 10  1  0
  7 10  1  0
  9 11  1  6
 11 12  1  0
 12 13  1  0
 13 14  1  0
 14 15  1  0
 14 16  1  0
 14 17  1  0
 15 18  1  0
 18 19  1  0
 18 20  1  0
 18 21  1  0
M  CHG  1  20  -1
M  END
>  <%Rank>  (686) 
52.290076

>  <N_hits>  (686) 
2

>  <submitter_name>  (686) 
nan

>  <original SMILES>  (686) 
nan

>  <∆G_unbound>  (686) 
1.532713

>  <∆G_bound>  (686) 
-6.419404

>  <regarded>  (686) 
5CMS_0_E_δ,5L9K_0_A_β

>  <ref_pdb>  (686) 
nan

>  <smiles>  (686) 
NC1NCNC2NC(CCO[PH](O)(O)O[PH]([O-])(O)O)NC12

>  <submitter_email>  (686) 
nan

>  <disregarded>  (686) 


>  <LE>  (686) 
-0.378672

>  <submitter_institution>  (686) 
nan

>  <ref_mols>  (686) 
5CMS_0_E,5L9K_0_A

>  <N_constrained_atoms>  (686) 
19.0

>  <ref_url>  (686) 
nan

>  <method>  (686) 
nan

>  <comRMSD>  (686) 
0.812571

>  <N_unconstrained_atoms>  (686) 
2.0

>  <∆∆G>  (686) 
-7.952117

>  <runtime>  (686) 
24.987644

>  <generation_date>  (686) 
nan

$$$$
mArh-x0711_0_A_α-mArh-1hjz_A_0_A_α
     RDKit          3D

 29 30  0  0  0  0  0  0  0  0999 V2000
   -1.5010   15.1280   -2.5160 N   0  0  0  0  0  0  0  0  0  0  0  0
   -0.5410   13.9710   -3.3210 S   0  0  1  0  0  0  0  0  0  0  0  0
   -1.6670   12.8300   -4.0770 C   0  0  0  0  0  0  0  0  0  0  0  0
   -2.7350   14.9600   -1.8170 C   0  0  0  0  0  0  0  0  0  0  0  0
    0.1580   14.7640   -4.4540 N   0  0  0  0  0  0  0  0  0  0  0  0
    0.1170   13.2990   -2.2180 O   0  0  0  0  0  0  0  0  0  0  0  0
   -3.9580   15.1710   -2.4620 C   0  0  0  0  0  0  0  0  0  0  0  0
   -2.7450   14.6000   -0.4570 C   0  0  0  0  0  0  0  0  0  0  0  0
    0.6210   16.1580   -4.2360 C   0  0  0  0  0  0  0  0  0  0  0  0
   -5.1650   15.0400   -1.7710 C   0  0  0  0  0  0  0  0  0  0  0  0
   -3.9530   14.4650    0.2400 C   0  0  0  0  0  0  0  0  0  0  0  0
   -0.2000   17.1350   -5.0960 C   0  0  0  0  0  0  0  0  0  0  0  0
   -5.1720   14.6900   -0.4140 C   0  0  0  0  0  0  0  0  0  0  0  0
   -6.4440   14.5530    0.3490 C   0  0  0  0  0  0  0  0  0  0  0  0
    0.6550   18.1930   -5.7990 C   0  0  0  0  0  0  0  0  0  0  0  0
   -6.4190   14.6660    1.7150 N   0  0  0  0  0  0  0  0  0  0  0  0
   -7.5090   14.3630   -0.2250 O   0  0  0  0  0  0  0  0  0  0  0  0
   -0.2010   19.2550   -6.2530 O   0  0  0  0  0  0  0  0  0  0  0  0
   -0.0100   19.8940   -7.7490 S   0  0  0  0  0  0  0  0  0  0  0  0
    0.9130   21.0110   -7.6550 O   0  0  0  0  0  0  0  0  0  0  0  0
    0.2240   18.7960   -8.6770 O   0  0  0  0  0  0  0  0  0  0  0  0
   -1.6600   20.5030   -8.0290 C   0  0  0  0  0  0  0  0  0  0  0  0
   -2.0190   21.7620   -7.2680 C   0  0  0  0  0  0  0  0  0  0  0  0
   -3.4220   22.1910   -7.4780 N   0  0  0  0  0  0  0  0  0  0  0  0
   -3.6660   22.5520   -8.8780 C   0  0  0  0  0  0  0  0  0  0  0  0
   -3.7660   23.3770   -6.6620 C   0  0  0  0  0  0  0  0  0  0  0  0
   -5.0770   23.0480   -9.1730 C   0  0  0  0  0  0  0  0  0  0  0  0
   -5.1860   23.8600   -6.9550 C   0  0  0  0  0  0  0  0  0  0  0  0
   -5.4100   24.1560   -8.3380 O   0  0  0  0  0  0  0  0  0  0  0  0
  2  1  1  0
  2  3  1  6
  1  4  1  0
  2  5  2  0
  2  6  2  0
  4  7  2  0
  4  8  1  0
  5  9  1  0
  7 10  1  0
  8 11  2  0
  9 12  1  0
 10 13  2  0
 11 13  1  0
 13 14  1  0
 12 15  1  0
 14 16  1  0
 14 17  2  0
 15 18  1  0
 19 18  1  0
 19 20  2  0
 19 21  2  0
 19 22  1  0
 22 23  1  0
 23 24  1  0
 24 25  1  0
 24 26  1  0
 25 27  1  0
 26 28  1  0
 27 29  1  0
 28 29  1  0
M  END
>  <%Rank>  (687) 
52.366412

>  <N_hits>  (687) 
2

>  <submitter_name>  (687) 
nan

>  <original SMILES>  (687) 
nan

>  <∆G_unbound>  (687) 
0.013779

>  <∆G_bound>  (687) 
-14.878284

>  <regarded>  (687) 
mArh-x0711_0_A_α,mArh-1hjz_A_0_A_α

>  <ref_pdb>  (687) 
nan

>  <smiles>  (687) 
CS(=O)(=NCCCOS(=O)(=O)CCN1CCOCC1)Nc1ccc(C(N)=O)cc1

>  <submitter_email>  (687) 
nan

>  <disregarded>  (687) 


>  <LE>  (687) 
-0.513519

>  <submitter_institution>  (687) 
nan

>  <ref_mols>  (687) 
mArh-x0711_0_A,mArh-1hjz_A_0_A

>  <N_constrained_atoms>  (687) 
26.0

>  <ref_url>  (687) 
nan

>  <method>  (687) 
nan

>  <comRMSD>  (687) 
0.992436

>  <N_unconstrained_atoms>  (687) 
3.0

>  <∆∆G>  (687) 
-14.892063

>  <runtime>  (687) 
64.26244

>  <generation_date>  (687) 
nan

$$$$
5CMS_0_I_β-mArh-x0933_0_A_α
     RDKit          3D

 19 19  0  0  0  0  0  0  0  0999 V2000
   -0.0190   21.1520   -7.5480 O   0  0  0  0  0  0  0  0  0  0  0  0
   -0.6470   19.7250   -7.6420 P   0  0  0  0  0  0  0  0  0  0  0  0
   -1.4960   19.4150   -6.3190 O   0  0  0  0  0  0  0  0  0  0  0  0
    0.9010   19.1370   -7.5590 O   0  0  0  0  0  0  0  0  0  0  0  0
   -0.7050   18.4330   -8.4940 O   0  0  0  0  0  0  0  0  0  0  0  0
   -1.6940   17.7660   -6.1260 P   0  0  0  0  0  0  0  0  0  0  0  0
   -0.3020   16.9100   -5.7760 O   0  0  0  0  0  0  0  0  0  0  0  0
   -2.9380   17.0410   -6.7400 O   0  0  0  0  0  0  0  0  0  0  0  0
   -2.1150   17.6690   -4.6950 O   0  0  0  0  0  0  0  0  0  0  0  0
   -1.8160   16.5730   -3.8530 C   0  0  0  0  0  0  0  0  0  0  0  0
   -3.0470   15.6300   -3.5830 C   0  0  0  0  0  0  0  0  0  0  0  0
   -3.6750   15.7720   -2.1750 C   0  0  0  0  0  0  0  0  0  0  0  0
   -3.8090   14.5560   -1.3320 C   0  0  2  0  0  0  0  0  0  0  0  0
   -5.0790   14.6670   -0.5980 N   0  0  0  0  0  0  0  0  0  0  0  0
   -2.6660   14.3300   -0.4240 C   0  0  0  0  0  0  0  0  0  0  0  0
   -4.8910   14.4950    0.8180 C   0  0  2  0  0  0  0  0  0  0  0  0
   -2.6630   15.3430    0.6960 C   0  0  0  0  0  0  0  0  0  0  0  0
   -6.1700   14.5500    1.4860 N   0  0  0  0  0  0  0  0  0  0  0  0
   -3.9240   15.4010    1.3640 N   0  0  0  0  0  0  0  0  0  0  0  0
  1  2  1  0
  2  3  1  0
  2  4  1  0
  2  5  1  0
  3  6  1  0
  6  7  1  0
  6  8  1  0
  6  9  1  0
  9 10  1  0
 10 11  1  0
 11 12  1  0
 13 12  1  1
 13 14  1  0
 13 15  1  0
 14 16  1  0
 15 17  1  0
 16 18  1  1
 16 19  1  0
 17 19  1  0
M  CHG  2   4  -1   8  -1
M  END
>  <%Rank>  (688) 
52.442748

>  <N_hits>  (688) 
2

>  <submitter_name>  (688) 
nan

>  <original SMILES>  (688) 
nan

>  <∆G_unbound>  (688) 
0.681597

>  <∆G_bound>  (688) 
-6.432824

>  <regarded>  (688) 
5CMS_0_I_β,mArh-x0933_0_A_α

>  <ref_pdb>  (688) 
nan

>  <smiles>  (688) 
NC1NCCC(CCCO[PH]([O-])(O)O[PH]([O-])(O)O)N1

>  <submitter_email>  (688) 
nan

>  <disregarded>  (688) 


>  <LE>  (688) 
-0.374443

>  <submitter_institution>  (688) 
nan

>  <ref_mols>  (688) 
5CMS_0_I,mArh-x0933_0_A

>  <N_constrained_atoms>  (688) 
16.0

>  <ref_url>  (688) 
nan

>  <method>  (688) 
nan

>  <comRMSD>  (688) 
0.706731

>  <N_unconstrained_atoms>  (688) 
3.0

>  <∆∆G>  (688) 
-7.11442

>  <runtime>  (688) 
31.04627

>  <generation_date>  (688) 
nan

$$$$
5CB5_0_O_β-5CMS_0_G_γ
     RDKit          3D

 21 22  0  0  0  0  0  0  0  0999 V2000
   -1.3780   20.6430   -9.0220 O   0  0  0  0  0  0  0  0  0  0  0  0
   -0.7870   19.9270   -7.8200 P   0  0  0  0  0  0  0  0  0  0  0  0
   -0.4460   19.0970   -6.5930 O   0  0  0  0  0  0  0  0  0  0  0  0
    0.3710   21.0410   -7.6190 O   0  0  0  0  0  0  0  0  0  0  0  0
   -0.3310   18.6110   -8.7360 O   0  0  0  0  0  0  0  0  0  0  0  0
   -1.2010   17.9290   -5.9420 P   0  0  0  0  0  0  0  0  0  0  0  0
   -1.7910   16.6540   -5.3070 O   0  0  0  0  0  0  0  0  0  0  0  0
   -2.3230   17.8890   -7.1280 O   0  0  0  0  0  0  0  0  0  0  0  0
   -1.6220   18.8010   -4.6470 O   0  0  0  0  0  0  0  0  0  0  0  0
   -1.2510   16.2130   -4.0800 C   0  0  0  0  0  0  0  0  0  0  0  0
   -2.3250   15.9330   -3.0750 C   0  0  0  0  0  0  0  0  0  0  0  0
   -2.1120   14.7080   -2.2870 N   0  0  0  0  0  0  0  0  0  0  0  0
   -1.7120   15.0820   -0.9500 C   0  0  1  0  0  0  0  0  0  0  0  0
   -3.4480   14.1660   -2.1690 C   0  0  0  0  0  0  0  0  0  0  0  0
   -2.7550   14.3050   -0.1220 C   0  0  2  0  0  0  0  0  0  0  0  0
   -3.9110   14.6370   -0.8590 N   0  0  0  0  0  0  0  0  0  0  0  0
   -0.4160   14.5780   -0.5290 N   0  0  0  0  0  0  0  0  0  0  0  0
   -0.3400   14.7690    0.9120 C   0  0  0  0  0  0  0  0  0  0  0  0
   -2.7150   14.8050    1.2940 C   0  0  2  0  0  0  0  0  0  0  0  0
   -3.8350   15.7320    1.4780 N   0  0  0  0  0  0  0  0  0  0  0  0
   -1.4620   15.4970    1.3980 N   0  0  0  0  0  0  0  0  0  0  0  0
  1  2  1  0
  2  3  1  0
  2  4  1  0
  2  5  1  0
  3  6  1  0
  6  7  1  0
  6  8  1  0
  6  9  1  0
  7 10  1  0
 10 11  1  0
 11 12  1  0
 12 13  1  0
 12 14  1  0
 13 15  1  0
 14 16  1  0
 15 16  1  6
 13 17  1  1
 17 18  1  0
 15 19  1  0
 19 20  1  6
 18 21  1  0
 19 21  1  0
M  CHG  2   4  -1   8  -1
M  END
>  <%Rank>  (689) 
52.519084

>  <N_hits>  (689) 
2

>  <submitter_name>  (689) 
nan

>  <original SMILES>  (689) 
nan

>  <∆G_unbound>  (689) 
0.88229

>  <∆G_bound>  (689) 
-6.833914

>  <regarded>  (689) 
5CB5_0_O_β,5CMS_0_G_γ

>  <ref_pdb>  (689) 
nan

>  <smiles>  (689) 
NC1NCNC2C1NCN2CCO[PH]([O-])(O)O[PH]([O-])(O)O

>  <submitter_email>  (689) 
nan

>  <disregarded>  (689) 


>  <LE>  (689) 
-0.367438

>  <submitter_institution>  (689) 
nan

>  <ref_mols>  (689) 
5CB5_0_O,5CMS_0_G

>  <N_constrained_atoms>  (689) 
19.0

>  <ref_url>  (689) 
nan

>  <method>  (689) 
nan

>  <comRMSD>  (689) 
0.809144

>  <N_unconstrained_atoms>  (689) 
2.0

>  <∆∆G>  (689) 
-7.716204

>  <runtime>  (689) 
32.753564

>  <generation_date>  (689) 
nan

$$$$
mArh-x0711_0_A_α-mArh-5dus_0_A_β
     RDKit          3D

 24 24  0  0  0  0  0  0  0  0999 V2000
   -1.5590   15.0840   -2.4960 N   0  0  0  0  0  0  0  0  0  0  0  0
   -0.5550   13.9710   -3.2280 S   0  0  1  0  0  0  0  0  0  0  0  0
   -1.4860   12.9370   -4.3260 C   0  0  0  0  0  0  0  0  0  0  0  0
   -2.7850   14.9440   -1.8070 C   0  0  0  0  0  0  0  0  0  0  0  0
    0.2680   14.9680   -4.0640 N   0  0  0  0  0  0  0  0  0  0  0  0
   -0.0090   13.1740   -2.1440 O   0  0  0  0  0  0  0  0  0  0  0  0
   -4.0250   15.1520   -2.4160 C   0  0  0  0  0  0  0  0  0  0  0  0
   -2.7670   14.5990   -0.4450 C   0  0  0  0  0  0  0  0  0  0  0  0
   -0.4160   15.7690   -5.0980 C   0  0  0  0  0  0  0  0  0  0  0  0
   -5.2140   15.0250   -1.6870 C   0  0  0  0  0  0  0  0  0  0  0  0
   -3.9550   14.4690    0.2940 C   0  0  0  0  0  0  0  0  0  0  0  0
   -0.9320   17.0120   -4.6580 O   0  0  0  0  0  0  0  0  0  0  0  0
   -5.1850   14.6860   -0.3280 C   0  0  0  0  0  0  0  0  0  0  0  0
   -6.4910   14.5740    0.3880 C   0  0  0  0  0  0  0  0  0  0  0  0
   -1.5670   18.0410   -5.7280 P   0  0  1  0  0  0  0  0  0  0  0  0
   -6.5070   14.6540    1.7600 N   0  0  0  0  0  0  0  0  0  0  0  0
   -7.5380   14.4230   -0.2260 O   0  0  0  0  0  0  0  0  0  0  0  0
   -0.3430   18.8080   -6.3560 O   0  0  0  0  0  0  0  0  0  0  0  0
   -2.5550   17.4300   -6.6680 O   0  0  0  0  0  0  0  0  0  0  0  0
   -2.1930   19.1330   -4.7580 O   0  0  0  0  0  0  0  0  0  0  0  0
   -0.2610   19.7190   -7.6380 P   0  0  0  0  0  0  0  0  0  0  0  0
   -1.7320   20.2320   -7.9430 O   0  0  0  0  0  0  0  0  0  0  0  0
    0.7840   20.7720   -7.6380 O   0  0  0  0  0  0  0  0  0  0  0  0
   -0.0110   18.6620   -8.8140 O   0  0  0  0  0  0  0  0  0  0  0  0
  2  1  1  0
  2  3  1  6
  1  4  1  0
  2  5  2  0
  2  6  2  0
  4  7  2  0
  4  8  1  0
  5  9  1  0
  7 10  1  0
  8 11  2  0
  9 12  1  0
 10 13  2  0
 11 13  1  0
 13 14  1  0
 12 15  1  0
 14 16  1  0
 14 17  2  0
 15 18  1  0
 15 19  2  0
 15 20  1  1
 18 21  1  0
 21 22  1  0
 21 23  2  0
 21 24  1  0
M  END
>  <%Rank>  (690) 
52.59542

>  <N_hits>  (690) 
2

>  <submitter_name>  (690) 
nan

>  <original SMILES>  (690) 
nan

>  <∆G_unbound>  (690) 
2.844168

>  <∆G_bound>  (690) 
-12.693151

>  <regarded>  (690) 
mArh-x0711_0_A_α,mArh-5dus_0_A_β

>  <ref_pdb>  (690) 
nan

>  <smiles>  (690) 
CS(=O)(=NCOP(=O)(O)OP(=O)(O)O)Nc1ccc(C(N)=O)cc1

>  <submitter_email>  (690) 
nan

>  <disregarded>  (690) 


>  <LE>  (690) 
-0.647388

>  <submitter_institution>  (690) 
nan

>  <ref_mols>  (690) 
mArh-x0711_0_A,mArh-5dus_0_A

>  <N_constrained_atoms>  (690) 
23.0

>  <ref_url>  (690) 
nan

>  <method>  (690) 
nan

>  <comRMSD>  (690) 
1.057168

>  <N_unconstrained_atoms>  (690) 
1.0

>  <∆∆G>  (690) 
-15.537319

>  <runtime>  (690) 
45.202758

>  <generation_date>  (690) 
nan

$$$$
5CB5_0_I_α-5L9K_0_A_β
     RDKit          3D

 17 17  0  0  0  0  0  0  0  0999 V2000
   -2.1560   21.4510   -7.5640 C   0  0  0  0  0  0  0  0  0  0  0  0
   -0.9160   20.2660   -7.9310 P   0  0  0  0  0  0  0  0  0  0  0  0
   -0.9280   19.5760   -6.5520 O   0  0  0  0  0  0  0  0  0  0  0  0
   -3.2030   21.7580   -8.6190 C   0  0  1  0  0  0  0  0  0  0  0  0
   -1.0790   18.8050   -8.5670 O   0  0  0  0  0  0  0  0  0  0  0  0
    0.6830   20.7520   -7.6090 O   0  0  0  0  0  0  0  0  0  0  0  0
   -4.3930   21.1120   -8.4020 O   0  0  0  0  0  0  0  0  0  0  0  0
   -3.7060   23.1900   -8.5740 C   0  0  1  0  0  0  0  0  0  0  0  0
   -4.6330   23.3800   -9.5900 O   0  0  0  0  0  0  0  0  0  0  0  0
   -1.6790   18.1280   -6.2250 P   0  0  0  0  0  0  0  0  0  0  0  0
   -5.0980   21.7800   -7.4210 C   0  0  2  0  0  0  0  0  0  0  0  0
   -4.4730   23.1130   -7.2630 C   0  0  2  0  0  0  0  0  0  0  0  0
   -5.1130   21.1620   -6.1740 O   0  0  0  0  0  0  0  0  0  0  0  0
   -5.4590   24.1190   -7.2630 O   0  0  0  0  0  0  0  0  0  0  0  0
   -0.9400   16.9540   -5.2850 O   0  0  0  0  0  0  0  0  0  0  0  0
   -2.2320   18.7620   -4.9610 O   0  0  0  0  0  0  0  0  0  0  0  0
   -3.0350   17.6920   -6.9330 O   0  0  0  0  0  0  0  0  0  0  0  0
  1  2  1  0
  2  3  1  0
  4  1  1  1
  2  5  1  0
  2  6  1  0
  4  7  1  0
  4  8  1  0
  8  9  1  6
  3 10  1  0
  7 11  1  0
  8 12  1  0
 11 12  1  0
 11 13  1  1
 12 14  1  6
 10 15  1  0
 10 16  1  0
 10 17  1  0
M  CHG  2   5  -1  16  -1
M  END
>  <%Rank>  (691) 
52.671756

>  <N_hits>  (691) 
2

>  <submitter_name>  (691) 
nan

>  <original SMILES>  (691) 
nan

>  <∆G_unbound>  (691) 
1.818629

>  <∆G_bound>  (691) 
-7.040357

>  <regarded>  (691) 
5CB5_0_I_α,5L9K_0_A_β

>  <ref_pdb>  (691) 
nan

>  <smiles>  (691) 
[O-][PH](O)(O)O[PH]([O-])(O)CC1OC(O)C(O)C1O

>  <submitter_email>  (691) 
nan

>  <disregarded>  (691) 


>  <LE>  (691) 
-0.521117

>  <submitter_institution>  (691) 
nan

>  <ref_mols>  (691) 
5CB5_0_I,5L9K_0_A

>  <N_constrained_atoms>  (691) 
17.0

>  <ref_url>  (691) 
nan

>  <method>  (691) 
nan

>  <comRMSD>  (691) 
0.903547

>  <N_unconstrained_atoms>  (691) 
0.0

>  <∆∆G>  (691) 
-8.858986

>  <runtime>  (691) 
32.114217

>  <generation_date>  (691) 
nan

$$$$
5L9K_0_A_β-5CB5_0_D_δ
     RDKit          3D

 21 22  0  0  0  0  0  0  0  0999 V2000
   -1.9390   20.9480   -8.4310 O   0  0  0  0  0  0  0  0  0  0  0  0
   -1.0670   19.7170   -7.7340 P   0  0  0  0  0  0  0  0  0  0  0  0
   -1.3940   19.2650   -6.2100 O   0  0  0  0  0  0  0  0  0  0  0  0
   -0.0890   18.7780   -8.7210 O   0  0  0  0  0  0  0  0  0  0  0  0
    0.1130   20.6210   -7.4490 O   0  0  0  0  0  0  0  0  0  0  0  0
   -1.7600   17.8060   -5.9930 P   0  0  0  0  0  0  0  0  0  0  0  0
   -0.2070   17.4270   -6.4440 O   0  0  0  0  0  0  0  0  0  0  0  0
   -2.1440   17.7040   -4.4800 O   0  0  0  0  0  0  0  0  0  0  0  0
   -2.8990   17.9440   -7.1230 O   0  0  0  0  0  0  0  0  0  0  0  0
   -2.4640   16.4130   -4.2130 C   0  0  0  0  0  0  0  0  0  0  0  0
   -2.1900   15.9740   -2.8580 C   0  0  0  0  0  0  0  0  0  0  0  0
   -2.7950   14.6780   -2.5110 C   0  0  1  0  0  0  0  0  0  0  0  0
   -1.7500   13.8020   -2.0950 N   0  0  0  0  0  0  0  0  0  0  0  0
   -3.6420   14.7870   -1.3610 N   0  0  0  0  0  0  0  0  0  0  0  0
   -1.5460   14.1710   -0.7350 C   0  0  2  0  0  0  0  0  0  0  0  0
   -2.5950   15.2980   -0.5310 C   0  0  2  0  0  0  0  0  0  0  0  0
   -0.3070   14.7790   -0.4240 N   0  0  0  0  0  0  0  0  0  0  0  0
   -2.8640   15.4790    0.8820 C   0  0  1  0  0  0  0  0  0  0  0  0
   -4.1020   14.9310    1.3560 N   0  0  0  0  0  0  0  0  0  0  0  0
   -0.4770   15.2760    0.9440 C   0  0  0  0  0  0  0  0  0  0  0  0
   -1.7150   14.9600    1.5660 N   0  0  0  0  0  0  0  0  0  0  0  0
  1  2  1  0
  2  3  1  0
  2  4  1  0
  2  5  1  0
  3  6  1  0
  6  7  1  0
  6  8  1  0
  6  9  1  0
  8 10  1  0
 10 11  1  0
 12 11  1  1
 12 13  1  0
 12 14  1  0
 15 13  1  6
 16 14  1  6
 15 16  1  0
 15 17  1  0
 16 18  1  0
 18 19  1  1
 17 20  1  0
 18 21  1  0
 20 21  1  0
M  CHG  1   4  -1
M  END
>  <%Rank>  (692) 
52.748092

>  <N_hits>  (692) 
2

>  <submitter_name>  (692) 
nan

>  <original SMILES>  (692) 
nan

>  <∆G_unbound>  (692) 
2.968221

>  <∆G_bound>  (692) 
-6.438978

>  <regarded>  (692) 
5L9K_0_A_β,5CB5_0_D_δ

>  <ref_pdb>  (692) 
nan

>  <smiles>  (692) 
NC1NCNC2NC(CCO[PH](O)(O)O[PH]([O-])(O)O)NC12

>  <submitter_email>  (692) 
nan

>  <disregarded>  (692) 


>  <LE>  (692) 
-0.447962

>  <submitter_institution>  (692) 
nan

>  <ref_mols>  (692) 
5L9K_0_A,5CB5_0_D

>  <N_constrained_atoms>  (692) 
19.0

>  <ref_url>  (692) 
nan

>  <method>  (692) 
nan

>  <comRMSD>  (692) 
0.85774

>  <N_unconstrained_atoms>  (692) 
2.0

>  <∆∆G>  (692) 
-9.407199

>  <runtime>  (692) 
23.091822

>  <generation_date>  (692) 
nan

$$$$
mArh-x0910_2_B_α-mArh-EU0815_0_A_α
     RDKit          3D

 20 20  0  0  0  0  0  0  0  0999 V2000
  -11.9270   21.4520   -3.1990 N   0  0  0  0  0  0  0  0  0  0  0  0
  -12.2420   22.3790   -2.2780 C   0  0  0  0  0  0  0  0  0  0  0  0
  -12.0380   23.6670   -2.3400 N   0  0  0  0  0  0  0  0  0  0  0  0
  -12.8420   22.0780   -1.0930 N   0  0  0  0  0  0  0  0  0  0  0  0
  -13.2270   20.7720   -0.6300 C   0  0  0  0  0  0  0  0  0  0  0  0
  -12.5140   24.2270   -1.1840 N   0  0  0  0  0  0  0  0  0  0  0  0
  -12.9990   23.2640   -0.4400 C   0  0  0  0  0  0  0  0  0  0  0  0
  -12.0940   19.7520   -0.8040 C   0  0  0  0  0  0  0  0  0  0  0  0
  -12.1380   18.5170    0.1010 C   0  0  0  0  0  0  0  0  0  0  0  0
  -10.8580   17.6760    0.0410 C   0  0  0  0  0  0  0  0  0  0  0  0
  -10.6900   16.7900    1.2780 C   0  0  0  0  0  0  0  0  0  0  0  0
   -9.5350   15.7810    1.2600 C   0  0  0  0  0  0  0  0  0  0  0  0
   -9.1690   15.5480    2.6540 N   0  0  0  0  0  0  0  0  0  0  0  0
   -8.0210   15.1200    3.0520 C   0  0  0  0  0  0  0  0  0  0  0  0
   -6.9050   14.7820    2.3610 N   0  0  0  0  0  0  0  0  0  0  0  0
   -7.8910   14.9830    4.3920 N   0  0  0  0  0  0  0  0  0  0  0  0
   -9.1020   14.8510    5.2210 C   0  0  1  0  0  0  0  0  0  0  0  0
   -9.3630   13.3710    5.5120 C   0  0  0  0  0  0  0  0  0  0  0  0
   -8.9810   15.6560    6.5250 C   0  0  0  0  0  0  0  0  0  0  0  0
  -10.2320   15.7560    7.2090 O   0  0  0  0  0  0  0  0  0  0  0  0
  1  2  1  0
  2  3  2  0
  2  4  1  0
  4  5  1  0
  3  6  1  0
  4  7  1  0
  6  7  2  0
  5  8  1  0
  8  9  1  0
  9 10  1  0
 10 11  1  0
 11 12  1  0
 12 13  1  0
 13 14  2  3
 14 15  1  0
 14 16  1  0
 16 17  1  0
 17 18  1  1
 17 19  1  0
 19 20  1  0
M  END
>  <%Rank>  (693) 
52.824427

>  <N_hits>  (693) 
2

>  <submitter_name>  (693) 
nan

>  <original SMILES>  (693) 
nan

>  <∆G_unbound>  (693) 
1.327876

>  <∆G_bound>  (693) 
-4.812455

>  <regarded>  (693) 
mArh-x0910_2_B_α,mArh-EU0815_0_A_α

>  <ref_pdb>  (693) 
nan

>  <smiles>  (693) 
C[C@@H](CO)NC(N)=NCCCCCCn1cnnc1N

>  <submitter_email>  (693) 
nan

>  <disregarded>  (693) 


>  <LE>  (693) 
-0.307017

>  <submitter_institution>  (693) 
nan

>  <ref_mols>  (693) 
mArh-x0910_2_B,mArh-EU0815_0_A

>  <N_constrained_atoms>  (693) 
14.0

>  <ref_url>  (693) 
nan

>  <method>  (693) 
nan

>  <comRMSD>  (693) 
0.516471

>  <N_unconstrained_atoms>  (693) 
6.0

>  <∆∆G>  (693) 
-6.140331

>  <runtime>  (693) 
37.331349

>  <generation_date>  (693) 
nan

$$$$
5CB5_0_A_β-5CB5_0_A_δ
     RDKit          3D

 21 22  0  0  0  0  0  0  0  0999 V2000
   -1.7510   20.6570   -8.0640 O   0  0  0  0  0  0  0  0  0  0  0  0
   -0.5440   19.7470   -7.8700 P   0  0  0  0  0  0  0  0  0  0  0  0
   -1.1010   19.3260   -6.3180 O   0  0  0  0  0  0  0  0  0  0  0  0
    0.4930   20.9740   -7.9810 O   0  0  0  0  0  0  0  0  0  0  0  0
    0.5510   18.6810   -7.8040 O   0  0  0  0  0  0  0  0  0  0  0  0
   -1.6810   17.9180   -6.0830 P   0  0  0  0  0  0  0  0  0  0  0  0
   -0.1140   17.3490   -6.4570 O   0  0  0  0  0  0  0  0  0  0  0  0
   -2.7640   18.1720   -7.1950 O   0  0  0  0  0  0  0  0  0  0  0  0
   -1.9990   17.8240   -4.5470 O   0  0  0  0  0  0  0  0  0  0  0  0
   -2.4500   16.5270   -4.3030 C   0  0  0  0  0  0  0  0  0  0  0  0
   -2.2390   16.0520   -2.8880 C   0  0  0  0  0  0  0  0  0  0  0  0
   -2.9470   14.7950   -2.5430 C   0  0  1  0  0  0  0  0  0  0  0  0
   -1.9040   13.9560   -2.0170 N   0  0  0  0  0  0  0  0  0  0  0  0
   -3.7750   15.1130   -1.3460 N   0  0  0  0  0  0  0  0  0  0  0  0
   -1.6190   14.6920   -0.8550 C   0  0  1  0  0  0  0  0  0  0  0  0
   -3.0170   14.6400   -0.2260 C   0  0  1  0  0  0  0  0  0  0  0  0
   -0.6710   14.0860    0.0120 N   0  0  0  0  0  0  0  0  0  0  0  0
   -2.9530   15.5320    0.9500 C   0  0  1  0  0  0  0  0  0  0  0  0
   -4.2100   15.6000    1.6960 N   0  0  0  0  0  0  0  0  0  0  0  0
   -0.6610   14.8630    1.2280 C   0  0  0  0  0  0  0  0  0  0  0  0
   -1.9720   14.9500    1.8050 N   0  0  0  0  0  0  0  0  0  0  0  0
  1  2  1  0
  2  3  1  0
  2  4  1  0
  2  5  1  0
  3  6  1  0
  6  7  1  0
  6  8  1  0
  6  9  1  0
  9 10  1  0
 10 11  1  0
 12 11  1  1
 12 13  1  0
 12 14  1  0
 15 13  1  6
 16 14  1  6
 15 16  1  0
 15 17  1  0
 16 18  1  0
 18 19  1  1
 17 20  1  0
 18 21  1  0
 20 21  1  0
M  CHG  2   4  -1   8  -1
M  END
>  <%Rank>  (694) 
52.900763

>  <N_hits>  (694) 
2

>  <submitter_name>  (694) 
nan

>  <original SMILES>  (694) 
nan

>  <∆G_unbound>  (694) 
4.304915

>  <∆G_bound>  (694) 
-5.690533

>  <regarded>  (694) 
5CB5_0_A_β,5CB5_0_A_δ

>  <ref_pdb>  (694) 
nan

>  <smiles>  (694) 
NC1NCNC2NC(CCO[PH]([O-])(O)O[PH]([O-])(O)O)NC12

>  <submitter_email>  (694) 
nan

>  <disregarded>  (694) 


>  <LE>  (694) 
-0.475974

>  <submitter_institution>  (694) 
nan

>  <ref_mols>  (694) 
5CB5_0_A,5CB5_0_A

>  <N_constrained_atoms>  (694) 
19.0

>  <ref_url>  (694) 
nan

>  <method>  (694) 
nan

>  <comRMSD>  (694) 
0.875827

>  <N_unconstrained_atoms>  (694) 
2.0

>  <∆∆G>  (694) 
-9.995448

>  <runtime>  (694) 
38.820131

>  <generation_date>  (694) 
nan

$$$$
mArh-5fud_A_0_A_α-5CMS_0_K_δ
     RDKit          3D

 27 29  0  0  0  0  0  0  0  0999 V2000
   -0.2260   19.8970   -6.6040 O   0  0  0  0  0  0  0  0  0  0  0  0
   -0.7240   19.6830   -7.9140 S   0  0  0  0  0  0  0  0  0  0  0  0
    0.1170   19.2010   -8.9350 O   0  0  0  0  0  0  0  0  0  0  0  0
   -1.8480   18.5820   -7.6800 O   0  0  0  0  0  0  0  0  0  0  0  0
   -1.6770   21.0960   -8.4580 C   0  0  0  0  0  0  0  0  0  0  0  0
   -2.5660   21.6210   -7.3550 C   0  0  0  0  0  0  0  0  0  0  0  0
   -2.3190   18.6250   -6.3670 C   0  0  0  0  0  0  0  0  0  0  0  0
   -2.2680   17.2370   -5.7370 C   0  0  0  0  0  0  0  0  0  0  0  0
   -3.9070   22.0770   -7.7490 N   0  0  0  0  0  0  0  0  0  0  0  0
   -0.9710   16.8850   -5.0000 C   0  0  0  0  0  0  0  0  0  0  0  0
   -4.1120   22.4240   -9.1720 C   0  0  0  0  0  0  0  0  0  0  0  0
   -4.1740   23.3020   -6.9810 C   0  0  0  0  0  0  0  0  0  0  0  0
   -1.2090   16.0040   -3.7670 C   0  0  0  0  0  0  0  0  0  0  0  0
   -5.5320   22.9360   -9.4660 C   0  0  0  0  0  0  0  0  0  0  0  0
   -5.6060   23.7170   -7.2380 C   0  0  0  0  0  0  0  0  0  0  0  0
   -2.6810   15.5560   -3.6420 C   0  0  0  0  0  0  0  0  0  0  0  0
   -5.8650   24.0300   -8.6070 O   0  0  0  0  0  0  0  0  0  0  0  0
   -2.9360   14.4340   -2.6400 C   0  0  1  0  0  0  0  0  0  0  0  0
   -1.7060   13.9770   -2.0590 N   0  0  0  0  0  0  0  0  0  0  0  0
   -3.7730   14.8080   -1.5070 N   0  0  0  0  0  0  0  0  0  0  0  0
   -1.4450   14.9080   -0.9840 C   0  0  1  0  0  0  0  0  0  0  0  0
   -2.8150   15.5160   -0.6250 C   0  0  2  0  0  0  0  0  0  0  0  0
   -0.8550   14.0650    0.0180 N   0  0  0  0  0  0  0  0  0  0  0  0
   -3.1200   15.5410    0.8990 C   0  0  1  0  0  0  0  0  0  0  0  0
   -4.4430   14.9990    1.2160 N   0  0  0  0  0  0  0  0  0  0  0  0
   -0.8470   14.7950    1.2460 C   0  0  0  0  0  0  0  0  0  0  0  0
   -2.2010   14.7990    1.7250 N   0  0  0  0  0  0  0  0  0  0  0  0
  1  2  2  0
  2  3  2  0
  2  4  1  0
  2  5  1  0
  5  6  1  0
  4  7  1  0
  7  8  1  0
  6  9  1  0
  8 10  1  0
  9 11  1  0
  9 12  1  0
 10 13  1  0
 11 14  1  0
 12 15  1  0
 13 16  1  0
 14 17  1  0
 15 17  1  0
 18 16  1  6
 18 19  1  0
 18 20  1  0
 21 19  1  6
 22 20  1  6
 21 22  1  0
 21 23  1  0
 22 24  1  0
 24 25  1  6
 23 26  1  0
 24 27  1  0
 26 27  1  0
M  END
>  <%Rank>  (695) 
52.977099

>  <N_hits>  (695) 
2

>  <submitter_name>  (695) 
nan

>  <original SMILES>  (695) 
nan

>  <∆G_unbound>  (695) 
0.874424

>  <∆G_bound>  (695) 
-11.002696

>  <regarded>  (695) 
mArh-5fud_A_0_A_α,5CMS_0_K_δ

>  <ref_pdb>  (695) 
nan

>  <smiles>  (695) 
NC1NCNC2NC(CCCCCOS(=O)(=O)CCN3CCOCC3)NC12

>  <submitter_email>  (695) 
nan

>  <disregarded>  (695) 


>  <LE>  (695) 
-0.439893

>  <submitter_institution>  (695) 
nan

>  <ref_mols>  (695) 
mArh-5fud_A_0_A,5CMS_0_K

>  <N_constrained_atoms>  (695) 
22.0

>  <ref_url>  (695) 
nan

>  <method>  (695) 
nan

>  <comRMSD>  (695) 
0.853362

>  <N_unconstrained_atoms>  (695) 
5.0

>  <∆∆G>  (695) 
-11.87712

>  <runtime>  (695) 
40.42898

>  <generation_date>  (695) 
nan

$$$$
3VFQ_0_A_δ-5CMS_0_B_β
     RDKit          3D

 23 24  0  0  0  0  0  0  0  0999 V2000
   -6.8460   15.2470    3.3600 N   0  0  0  0  0  0  0  0  0  0  0  0
   -5.7100   14.5530    2.8160 C   0  0  1  0  0  0  0  0  0  0  0  0
   -5.8510   14.2520    1.3520 C   0  0  2  0  0  0  0  0  0  0  0  0
   -4.5000   15.2990    3.0130 N   0  0  0  0  0  0  0  0  0  0  0  0
   -4.7150   14.9340    0.5620 C   0  0  2  0  0  0  0  0  0  0  0  0
   -6.9590   14.7740    0.6330 N   0  0  0  0  0  0  0  0  0  0  0  0
   -3.4370   14.6420    2.3920 C   0  0  0  0  0  0  0  0  0  0  0  0
   -5.0630   14.5570   -0.7390 N   0  0  0  0  0  0  0  0  0  0  0  0
   -6.5120   14.6180   -0.7790 C   0  0  0  0  0  0  0  0  0  0  0  0
   -3.5360   14.3980    1.0540 N   0  0  0  0  0  0  0  0  0  0  0  0
   -4.5680   15.4680   -1.7440 C   0  0  0  0  0  0  0  0  0  0  0  0
   -4.3910   14.8630   -3.1300 C   0  0  0  0  0  0  0  0  0  0  0  0
   -3.0780   15.1660   -3.8120 C   0  0  0  0  0  0  0  0  0  0  0  0
   -3.0490   16.1660   -4.9180 C   0  0  0  0  0  0  0  0  0  0  0  0
   -2.5580   17.4220   -4.6680 O   0  0  0  0  0  0  0  0  0  0  0  0
   -1.4990   17.9970   -5.7120 P   0  0  0  0  0  0  0  0  0  0  0  0
   -1.4410   19.4380   -6.4640 O   0  0  0  0  0  0  0  0  0  0  0  0
   -0.2170   16.9460   -6.0010 O   0  0  0  0  0  0  0  0  0  0  0  0
   -2.3950   17.3990   -6.7960 O   0  0  0  0  0  0  0  0  0  0  0  0
   -0.6700   19.3380   -7.7760 P   0  0  0  0  0  0  0  0  0  0  0  0
   -1.5540   20.4680   -8.5540 O   0  0  0  0  0  0  0  0  0  0  0  0
    0.7360   19.7980   -7.1040 O   0  0  0  0  0  0  0  0  0  0  0  0
    0.1220   18.7900   -8.9400 O   0  0  0  0  0  0  0  0  0  0  0  0
  2  1  1  6
  2  3  1  0
  2  4  1  0
  3  5  1  0
  3  6  1  6
  4  7  1  0
  5  8  1  0
  6  9  1  0
  8  9  1  0
  5 10  1  1
  7 10  1  0
  8 11  1  0
 11 12  1  0
 12 13  1  0
 13 14  1  0
 14 15  1  0
 15 16  1  0
 16 17  1  0
 16 18  1  0
 16 19  1  0
 17 20  1  0
 20 21  1  0
 20 22  1  0
 20 23  1  0
M  CHG  2  19  -1  22  -1
M  END
>  <%Rank>  (696) 
53.053435

>  <N_hits>  (696) 
2

>  <submitter_name>  (696) 
nan

>  <original SMILES>  (696) 
nan

>  <∆G_unbound>  (696) 
1.513106

>  <∆G_bound>  (696) 
-8.290297

>  <regarded>  (696) 
3VFQ_0_A_δ,5CMS_0_B_β

>  <ref_pdb>  (696) 
nan

>  <smiles>  (696) 
NC1NCNC2C1NCN2CCCCO[PH]([O-])(O)O[PH]([O-])(O)O

>  <submitter_email>  (696) 
nan

>  <disregarded>  (696) 


>  <LE>  (696) 
-0.426235

>  <submitter_institution>  (696) 
nan

>  <ref_mols>  (696) 
3VFQ_0_A,5CMS_0_B

>  <N_constrained_atoms>  (696) 
19.0

>  <ref_url>  (696) 
nan

>  <method>  (696) 
nan

>  <comRMSD>  (696) 
0.800597

>  <N_unconstrained_atoms>  (696) 
4.0

>  <∆∆G>  (696) 
-9.803402

>  <runtime>  (696) 
28.81124

>  <generation_date>  (696) 
nan

$$$$
mArh-EU0860_0_A_β-4IQY_0_A_γ
     RDKit          3D

 22 23  0  0  0  0  0  0  0  0999 V2000
    1.9940    9.5170  -11.2350 N   0  0  0  0  0  0  0  0  0  0  0  0
    2.7690    9.8650  -12.3440 C   0  0  0  0  0  0  0  0  0  0  0  0
    3.8440    9.0450  -12.6990 C   0  0  0  0  0  0  0  0  0  0  0  0
    2.4880   11.0120  -13.0910 C   0  0  0  0  0  0  0  0  0  0  0  0
    1.3110   11.8970  -12.7040 C   0  0  0  0  0  0  0  0  0  0  0  0
    3.3250   11.3190  -14.2060 C   0  0  0  0  0  0  0  0  0  0  0  0
    4.6530    9.3460  -13.7870 C   0  0  0  0  0  0  0  0  0  0  0  0
    1.1390   12.2400  -11.1960 C   0  0  0  0  0  0  0  0  0  0  0  0
    4.3990   10.4760  -14.5370 C   0  0  0  0  0  0  0  0  0  0  0  0
    5.2410   10.7050  -15.5870 O   0  0  0  0  0  0  0  0  0  0  0  0
    0.0600   11.5550  -10.2850 C   0  0  0  0  0  0  0  0  0  0  0  0
    0.5350   11.0470   -8.8800 C   0  0  0  0  0  0  0  0  0  0  0  0
   -0.1220   11.6030   -7.5600 C   0  0  0  0  0  0  0  0  0  0  0  0
    0.7810   12.2390   -6.4470 C   0  0  0  0  0  0  0  0  0  0  0  0
    0.4090   13.5960   -6.0450 O   0  0  0  0  0  0  0  0  0  0  0  0
    0.5180   13.8940   -4.6190 C   0  0  1  0  0  0  0  0  0  0  0  0
    0.8550   15.3800   -4.2900 C   0  0  1  0  0  0  0  0  0  0  0  0
   -0.8630   13.7790   -3.9900 C   0  0  1  0  0  0  0  0  0  0  0  0
   -1.2450   12.4380   -3.7550 O   0  0  0  0  0  0  0  0  0  0  0  0
    0.4300   16.4370   -5.2990 C   0  0  0  0  0  0  0  0  0  0  0  0
   -0.6920   14.5970   -2.7220 C   0  0  0  0  0  0  0  0  0  0  0  0
    0.1430   15.7100   -3.0730 O   0  0  0  0  0  0  0  0  0  0  0  0
  1  2  1  0
  2  3  2  0
  2  4  1  0
  4  5  1  0
  4  6  2  0
  3  7  1  0
  5  8  1  0
  6  9  1  0
  7  9  2  0
  9 10  1  0
  8 11  1  0
 11 12  1  0
 12 13  1  0
 13 14  1  0
 14 15  1  0
 16 15  1  6
 16 17  1  0
 16 18  1  0
 18 19  1  1
 17 20  1  6
 18 21  1  0
 17 22  1  0
 21 22  1  0
M  END
>  <%Rank>  (697) 
53.129771

>  <N_hits>  (697) 
2

>  <submitter_name>  (697) 
nan

>  <original SMILES>  (697) 
nan

>  <∆G_unbound>  (697) 
0.772152

>  <∆G_bound>  (697) 
-7.296642

>  <regarded>  (697) 
mArh-EU0860_0_A_β,4IQY_0_A_γ

>  <ref_pdb>  (697) 
nan

>  <smiles>  (697) 
CC1OCC(O)C1OCCCCCCc1cc(O)ccc1N

>  <submitter_email>  (697) 
nan

>  <disregarded>  (697) 


>  <LE>  (697) 
-0.366763

>  <submitter_institution>  (697) 
nan

>  <ref_mols>  (697) 
mArh-EU0860_0_A,4IQY_0_A

>  <N_constrained_atoms>  (697) 
16.0

>  <ref_url>  (697) 
nan

>  <method>  (697) 
nan

>  <comRMSD>  (697) 
0.626255

>  <N_unconstrained_atoms>  (697) 
6.0

>  <∆∆G>  (697) 
-8.068793

>  <runtime>  (697) 
35.28853

>  <generation_date>  (697) 
nan

$$$$
5CB5_0_N_β-1VHU_0_A_α
     RDKit          3D

 17 17  0  0  0  0  0  0  0  0999 V2000
   -1.8900   20.6240   -8.2800 O   0  0  0  0  0  0  0  0  0  0  0  0
   -0.4390   19.9890   -7.7520 P   0  0  0  0  0  0  0  0  0  0  0  0
   -0.4380   18.7020   -6.7250 O   0  0  0  0  0  0  0  0  0  0  0  0
   -2.0350   21.9130   -7.7990 C   0  0  0  0  0  0  0  0  0  0  0  0
    0.8460   20.8410   -8.1220 O   0  0  0  0  0  0  0  0  0  0  0  0
   -0.2080   18.9370   -8.8440 O   0  0  0  0  0  0  0  0  0  0  0  0
   -3.3940   22.3850   -7.8800 N   0  0  0  0  0  0  0  0  0  0  0  0
   -1.8030   18.6400   -5.9380 P   0  0  0  0  0  0  0  0  0  0  0  0
    1.6600   21.3620   -7.3170 O   0  0  0  0  0  0  0  0  0  0  0  0
   -3.7540   22.8290   -9.1740 C   0  0  0  0  0  0  0  0  0  0  0  0
   -3.7140   23.3160   -6.8500 C   0  0  0  0  0  0  0  0  0  0  0  0
   -1.9450   17.6950   -4.6170 O   0  0  0  0  0  0  0  0  0  0  0  0
   -3.0340   19.6510   -6.4160 O   0  0  0  0  0  0  0  0  0  0  0  0
   -2.4870   17.5750   -6.7440 O   0  0  0  0  0  0  0  0  0  0  0  0
   -5.2430   23.1430   -9.1810 C   0  0  0  0  0  0  0  0  0  0  0  0
   -5.1860   23.6910   -6.9690 C   0  0  0  0  0  0  0  0  0  0  0  0
   -5.5170   24.1060   -8.2500 O   0  0  0  0  0  0  0  0  0  0  0  0
  1  2  1  0
  2  3  1  0
  1  4  1  0
  2  5  1  0
  2  6  1  0
  4  7  1  0
  3  8  1  0
  5  9  1  0
  7 10  1  0
  7 11  1  0
  8 12  1  0
  8 13  1  0
  8 14  1  0
 10 15  1  0
 11 16  1  0
 15 17  1  0
 16 17  1  0
M  CHG  1  13  -1
M  END
>  <%Rank>  (698) 
53.206107

>  <N_hits>  (698) 
2

>  <submitter_name>  (698) 
nan

>  <original SMILES>  (698) 
nan

>  <∆G_unbound>  (698) 
2.542756

>  <∆G_bound>  (698) 
-8.255826

>  <regarded>  (698) 
5CB5_0_N_β,1VHU_0_A_α

>  <ref_pdb>  (698) 
nan

>  <smiles>  (698) 
[O-][PH](O)(O)O[PH](O)(OO)OCN1CCOCC1

>  <submitter_email>  (698) 
nan

>  <disregarded>  (698) 


>  <LE>  (698) 
-0.635211

>  <submitter_institution>  (698) 
nan

>  <ref_mols>  (698) 
5CB5_0_N,1VHU_0_A

>  <N_constrained_atoms>  (698) 
17.0

>  <ref_url>  (698) 
nan

>  <method>  (698) 
nan

>  <comRMSD>  (698) 
0.972896

>  <N_unconstrained_atoms>  (698) 
0.0

>  <∆∆G>  (698) 
-10.798582

>  <runtime>  (698) 
32.772549

>  <generation_date>  (698) 
nan

$$$$
4IQY_0_B_α-5CMS_0_I_β
     RDKit          3D

 19 19  0  0  0  0  0  0  0  0999 V2000
   -1.7570   22.3500   -8.0020 C   0  0  0  0  0  0  0  0  0  0  0  0
   -3.1880   22.0830   -8.4760 C   0  0  1  0  0  0  0  0  0  0  0  0
   -3.7240   21.1190   -7.5900 N   0  0  0  0  0  0  0  0  0  0  0  0
   -3.9270   23.4050   -8.2930 C   0  0  1  0  0  0  0  0  0  0  0  0
   -4.4090   23.8870   -9.5120 O   0  0  0  0  0  0  0  0  0  0  0  0
   -2.8290   20.5400   -6.5950 C   0  0  0  0  0  0  0  0  0  0  0  0
   -5.0350   21.6850   -7.1570 C   0  0  2  0  0  0  0  0  0  0  0  0
   -5.1400   23.1280   -7.4680 C   0  0  1  0  0  0  0  0  0  0  0  0
   -5.4340   21.4070   -5.8730 O   0  0  0  0  0  0  0  0  0  0  0  0
   -5.2930   23.9720   -6.3780 O   0  0  0  0  0  0  0  0  0  0  0  0
   -1.9890   19.3290   -6.9460 N   0  0  0  0  0  0  0  0  0  0  0  0
   -0.4800   19.7440   -7.7630 P   0  0  0  0  0  0  0  0  0  0  0  0
   -1.8760   18.0310   -6.0130 P   0  0  0  0  0  0  0  0  0  0  0  0
   -1.2610   20.5670   -8.7800 O   0  0  0  0  0  0  0  0  0  0  0  0
    0.3510   19.1250   -6.6360 O   0  0  0  0  0  0  0  0  0  0  0  0
    0.0260   18.6820   -8.8400 O   0  0  0  0  0  0  0  0  0  0  0  0
   -0.3410   17.6040   -6.4100 O   0  0  0  0  0  0  0  0  0  0  0  0
   -3.1070   17.3530   -6.8600 O   0  0  0  0  0  0  0  0  0  0  0  0
   -2.0670   18.9140   -4.6810 O   0  0  0  0  0  0  0  0  0  0  0  0
  2  1  1  1
  2  3  1  0
  2  4  1  0
  4  5  1  6
  3  6  1  0
  3  7  1  0
  4  8  1  0
  7  8  1  0
  7  9  1  1
  8 10  1  1
  6 11  1  0
 11 12  1  0
 11 13  1  0
 12 14  1  0
 12 15  1  0
 12 16  1  0
 13 17  1  0
 13 18  1  0
 13 19  1  0
M  CHG  2  15  -1  18  -1
M  END
>  <%Rank>  (699) 
53.282443

>  <N_hits>  (699) 
2

>  <submitter_name>  (699) 
nan

>  <original SMILES>  (699) 
nan

>  <∆G_unbound>  (699) 
3.012928

>  <∆G_bound>  (699) 
-7.831508

>  <regarded>  (699) 
4IQY_0_B_α,5CMS_0_I_β

>  <ref_pdb>  (699) 
nan

>  <smiles>  (699) 
CC1C(O)C(O)C(O)N1CN([PH]([O-])(O)O)[PH]([O-])(O)O

>  <submitter_email>  (699) 
nan

>  <disregarded>  (699) 


>  <LE>  (699) 
-0.57076

>  <submitter_institution>  (699) 
nan

>  <ref_mols>  (699) 
4IQY_0_B,5CMS_0_I

>  <N_constrained_atoms>  (699) 
18.0

>  <ref_url>  (699) 
nan

>  <method>  (699) 
nan

>  <comRMSD>  (699) 
0.935569

>  <N_unconstrained_atoms>  (699) 
1.0

>  <∆∆G>  (699) 
-10.844436

>  <runtime>  (699) 
31.041909

>  <generation_date>  (699) 
nan

$$$$
5CMS_0_F_β-mArh-4gvw_0_A_α
     RDKit          3D

 17 17  0  0  0  0  0  0  0  0999 V2000
   -1.8660   20.9570   -8.7290 O   0  0  0  0  0  0  0  0  0  0  0  0
   -0.7860   19.9990   -7.8590 P   0  0  0  0  0  0  0  0  0  0  0  0
   -1.5780   19.8960   -6.2030 C   0  0  0  0  0  0  0  0  0  0  0  0
   -2.1790   22.1270   -8.0090 C   0  0  0  0  0  0  0  0  0  0  0  0
    0.6880   20.8680   -7.7360 O   0  0  0  0  0  0  0  0  0  0  0  0
   -0.3880   18.4940   -8.5780 O   0  0  0  0  0  0  0  0  0  0  0  0
   -3.5960   22.1960   -7.7160 N   0  0  0  0  0  0  0  0  0  0  0  0
   -1.3930   18.2170   -5.9870 P   0  0  0  0  0  0  0  0  0  0  0  0
   -1.5170   21.1940   -6.7960 S   0  0  0  0  0  0  0  0  0  0  0  0
   -3.8590   22.9480   -6.5560 C   0  0  0  0  0  0  0  0  0  0  0  0
   -4.3750   22.5980   -8.8210 C   0  0  0  0  0  0  0  0  0  0  0  0
   -0.1200   17.4550   -6.6520 O   0  0  0  0  0  0  0  0  0  0  0  0
   -2.4510   17.6710   -6.9530 O   0  0  0  0  0  0  0  0  0  0  0  0
   -2.2720   17.5040   -4.7720 O   0  0  0  0  0  0  0  0  0  0  0  0
   -5.2290   23.4390   -6.4070 C   0  0  0  0  0  0  0  0  0  0  0  0
   -5.8430   22.7770   -8.4600 C   0  0  0  0  0  0  0  0  0  0  0  0
   -5.8790   23.8620   -7.5540 O   0  0  0  0  0  0  0  0  0  0  0  0
  1  2  1  0
  2  3  1  0
  1  4  1  0
  2  5  1  0
  2  6  1  0
  4  7  1  0
  3  8  1  0
  3  9  2  0
  7 10  1  0
  7 11  1  0
  8 12  1  0
  8 13  1  0
  8 14  1  0
 10 15  1  0
 11 16  1  0
 15 17  1  0
 16 17  1  0
M  CHG  2   5  -1  13  -1
M  END
>  <%Rank>  (700) 
53.358779

>  <N_hits>  (700) 
2

>  <submitter_name>  (700) 
nan

>  <original SMILES>  (700) 
nan

>  <∆G_unbound>  (700) 
0.391833

>  <∆G_bound>  (700) 
-4.952637

>  <regarded>  (700) 
5CMS_0_F_β,mArh-4gvw_0_A_α

>  <ref_pdb>  (700) 
nan

>  <smiles>  (700) 
[O-][PH](O)(O)C(=S)[PH]([O-])(O)OCN1CCOCC1

>  <submitter_email>  (700) 
nan

>  <disregarded>  (700) 


>  <LE>  (700) 
-0.314381

>  <submitter_institution>  (700) 
nan

>  <ref_mols>  (700) 
5CMS_0_F,mArh-4gvw_0_A

>  <N_constrained_atoms>  (700) 
17.0

>  <ref_url>  (700) 
nan

>  <method>  (700) 
nan

>  <comRMSD>  (700) 
0.814047

>  <N_unconstrained_atoms>  (700) 
0.0

>  <∆∆G>  (700) 
-5.34447

>  <runtime>  (700) 
37.792818

>  <generation_date>  (700) 
nan

$$$$
mArh-x0711_0_A_α-2FAV_0_B_δ
     RDKit          3D

 20 21  0  0  0  0  0  0  0  0999 V2000
   -1.6800   15.0790   -2.5180 N   0  0  0  0  0  0  0  0  0  0  0  0
   -0.5270   14.0870   -3.2240 S   0  0  0  0  0  0  0  0  0  0  0  0
   -1.5080   12.9310   -4.1530 C   0  0  0  0  0  0  0  0  0  0  0  0
   -2.9160   14.5040   -1.9550 C   0  0  2  0  0  0  0  0  0  0  0  0
    0.1740   14.9260   -4.1720 O   0  0  0  0  0  0  0  0  0  0  0  0
    0.1940   13.3720   -2.1930 O   0  0  0  0  0  0  0  0  0  0  0  0
   -4.0390   15.4200   -2.1810 C   0  0  0  0  0  0  0  0  0  0  0  0
   -2.8270   14.0700   -0.4480 C   0  0  2  0  0  0  0  0  0  0  0  0
   -5.2120   15.1920   -1.6050 C   0  0  0  0  0  0  0  0  0  0  0  0
   -4.1380   13.2780   -0.1710 C   0  0  0  0  0  0  0  0  0  0  0  0
   -2.8260   15.0390    0.7690 C   0  0  2  0  0  0  0  0  0  0  0  0
   -1.4830   13.3560   -0.3730 C   0  0  0  0  0  0  0  0  0  0  0  0
   -3.7560   16.1410    0.7890 N   0  0  0  0  0  0  0  0  0  0  0  0
   -5.4420   13.9880   -0.7130 C   0  0  1  0  0  0  0  0  0  0  0  0
   -0.4070   14.3010   -0.4250 N   0  0  0  0  0  0  0  0  0  0  0  0
   -1.5370   15.5050    1.2460 N   0  0  0  0  0  0  0  0  0  0  0  0
   -6.5330   14.3660    0.3200 C   0  0  0  0  0  0  0  0  0  0  0  0
   -0.3180   14.7900    0.9190 C   0  0  0  0  0  0  0  0  0  0  0  0
   -6.2030   14.6160    1.6280 N   0  0  0  0  0  0  0  0  0  0  0  0
   -7.7150   14.4700    0.0010 O   0  0  0  0  0  0  0  0  0  0  0  0
  2  1  1  0
  2  3  1  0
  4  1  1  1
  2  5  2  0
  2  6  2  0
  4  7  1  0
  4  8  1  0
  7  9  2  0
  8 10  1  1
  8 11  1  0
  8 12  1  0
 11 13  1  6
  9 14  1  0
 10 14  1  0
 12 15  1  0
 11 16  1  0
 14 17  1  1
 15 18  1  0
 16 18  1  0
 17 19  1  0
 17 20  2  0
M  END
>  <%Rank>  (701) 
53.435115

>  <N_hits>  (701) 
2

>  <submitter_name>  (701) 
nan

>  <original SMILES>  (701) 
nan

>  <∆G_unbound>  (701) 
1.371949

>  <∆G_bound>  (701) 
-0.320359

>  <regarded>  (701) 
mArh-x0711_0_A_α,2FAV_0_B_δ

>  <ref_pdb>  (701) 
nan

>  <smiles>  (701) 
CS(=O)(=O)NC1C=CC(C(N)=O)CC12CNCNC2N

>  <submitter_email>  (701) 
nan

>  <disregarded>  (701) 


>  <LE>  (701) 
-0.084615

>  <submitter_institution>  (701) 
nan

>  <ref_mols>  (701) 
mArh-x0711_0_A,2FAV_0_B

>  <N_constrained_atoms>  (701) 
20.0

>  <ref_url>  (701) 
nan

>  <method>  (701) 
nan

>  <comRMSD>  (701) 
0.761525

>  <N_unconstrained_atoms>  (701) 
0.0

>  <∆∆G>  (701) 
-1.692308

>  <runtime>  (701) 
25.682818

>  <generation_date>  (701) 
nan

$$$$
mArh-5cms_G_3_G_α-mArh-3vfq_B_0_A_γ
     RDKit          3D

 18 18  0  0  0  0  0  0  0  0999 V2000
    0.0310   17.2700   -6.4640 O   0  0  0  0  0  0  0  0  0  0  0  0
   -1.4440   17.7570   -6.1150 P   0  0  0  0  0  0  0  0  0  0  0  0
   -1.8530   17.7490   -4.5380 O   0  0  0  0  0  0  0  0  0  0  0  0
   -2.6270   17.9540   -7.1870 O   0  0  0  0  0  0  0  0  0  0  0  0
   -1.0990   19.2190   -6.3000 O   0  0  0  0  0  0  0  0  0  0  0  0
   -0.8060   19.7140   -7.7860 P   0  0  0  0  0  0  0  0  0  0  0  0
   -1.7230   16.3750   -4.3880 C   0  0  0  0  0  0  0  0  0  0  0  0
   -1.6650   21.0050   -8.4040 O   0  0  0  0  0  0  0  0  0  0  0  0
    0.0710   18.7440   -8.8140 O   0  0  0  0  0  0  0  0  0  0  0  0
    0.4270   20.5530   -7.5390 O   0  0  0  0  0  0  0  0  0  0  0  0
   -3.0360   15.7680   -4.1070 C   0  0  0  0  0  0  0  0  0  0  0  0
   -3.1620   14.4790   -3.4610 C   0  0  1  0  0  0  0  0  0  0  0  0
   -3.1020   14.6440   -2.0820 O   0  0  0  0  0  0  0  0  0  0  0  0
   -4.3870   13.7730   -3.8610 C   0  0  1  0  0  0  0  0  0  0  0  0
   -4.1560   12.5450   -4.4480 O   0  0  0  0  0  0  0  0  0  0  0  0
   -4.2590   14.1860   -1.5150 C   0  0  0  0  0  0  0  0  0  0  0  0
   -5.1570   13.6120   -2.5700 C   0  0  2  0  0  0  0  0  0  0  0  0
   -5.5820   12.3300   -2.3200 O   0  0  0  0  0  0  0  0  0  0  0  0
  1  2  1  0
  2  3  1  0
  2  4  1  0
  2  5  1  0
  5  6  1  0
  3  7  1  0
  6  8  1  0
  6  9  1  0
  6 10  1  0
  7 11  1  0
 12 11  1  6
 12 13  1  0
 12 14  1  0
 14 15  1  1
 13 16  1  0
 14 17  1  0
 16 17  1  0
 17 18  1  1
M  CHG  1   9  -1
M  END
>  <%Rank>  (702) 
53.51145

>  <N_hits>  (702) 
2

>  <submitter_name>  (702) 
nan

>  <original SMILES>  (702) 
nan

>  <∆G_unbound>  (702) 
1.880429

>  <∆G_bound>  (702) 
-6.099564

>  <regarded>  (702) 
mArh-5cms_G_3_G_α,mArh-3vfq_B_0_A_γ

>  <ref_pdb>  (702) 
nan

>  <smiles>  (702) 
[O-][PH](O)(O)O[PH](O)(O)OCCC1OCC(O)C1O

>  <submitter_email>  (702) 
nan

>  <disregarded>  (702) 


>  <LE>  (702) 
-0.443333

>  <submitter_institution>  (702) 
nan

>  <ref_mols>  (702) 
mArh-5cms_G_3_G,mArh-3vfq_B_0_A

>  <N_constrained_atoms>  (702) 
17.0

>  <ref_url>  (702) 
nan

>  <method>  (702) 
nan

>  <comRMSD>  (702) 
0.85077

>  <N_unconstrained_atoms>  (702) 
1.0

>  <∆∆G>  (702) 
-7.979993

>  <runtime>  (702) 
35.121621

>  <generation_date>  (702) 
nan

$$$$
5L9K_0_A_δ-mArh-5cb5_P_0_P_α
     RDKit          3D

 24 26  0  0  0  0  0  0  0  0999 V2000
   -4.2280   15.6730    1.5930 N   0  0  0  0  0  0  0  0  0  0  0  0
   -3.1760   14.8130    1.0910 C   0  0  1  0  0  0  0  0  0  0  0  0
   -2.9970   14.5960   -0.4410 C   0  0  2  0  0  0  0  0  0  0  0  0
   -1.9680   15.3380    1.6610 N   0  0  0  0  0  0  0  0  0  0  0  0
   -1.6970   15.2250   -0.8940 C   0  0  2  0  0  0  0  0  0  0  0  0
   -3.8250   15.1460   -1.5400 N   0  0  0  0  0  0  0  0  0  0  0  0
   -0.8250   14.5720    1.2290 C   0  0  0  0  0  0  0  0  0  0  0  0
   -1.6240   14.5820   -2.1760 N   0  0  0  0  0  0  0  0  0  0  0  0
   -2.9170   14.9210   -2.7360 C   0  0  2  0  0  0  0  0  0  0  0  0
   -0.5100   14.9470   -0.1240 N   0  0  0  0  0  0  0  0  0  0  0  0
   -2.8340   16.2110   -3.5630 C   0  0  0  0  0  0  0  0  0  0  0  0
   -2.2710   16.4390   -5.0090 C   0  0  0  0  0  0  0  0  0  0  0  0
   -1.7410   17.9090   -5.2800 C   0  0  0  0  0  0  0  0  0  0  0  0
   -2.4640   18.7510   -6.4020 C   0  0  0  0  0  0  0  0  0  0  0  0
   -2.7890   20.2640   -6.0780 C   0  0  0  0  0  0  0  0  0  0  0  0
   -4.2170   20.6030   -6.1270 O   0  0  0  0  0  0  0  0  0  0  0  0
   -4.7530   21.5400   -7.1230 C   0  0  2  0  0  0  0  0  0  0  0  0
   -4.4560   21.1150   -8.4520 O   0  0  0  0  0  0  0  0  0  0  0  0
   -4.2430   22.9990   -6.9680 C   0  0  2  0  0  0  0  0  0  0  0  0
   -5.3110   23.9440   -6.6780 O   0  0  0  0  0  0  0  0  0  0  0  0
   -3.4510   21.9770   -8.9780 C   0  0  1  0  0  0  0  0  0  0  0  0
   -3.7030   23.3450   -8.3680 C   0  0  1  0  0  0  0  0  0  0  0  0
   -2.0800   21.4190   -8.6410 C   0  0  0  0  0  0  0  0  0  0  0  0
   -4.6290   24.0930   -9.1560 O   0  0  0  0  0  0  0  0  0  0  0  0
  2  1  1  6
  2  3  1  0
  2  4  1  0
  3  5  1  0
  3  6  1  6
  4  7  1  0
  5  8  1  6
  6  9  1  0
  8  9  1  0
  5 10  1  0
  7 10  1  0
  9 11  1  1
 11 12  1  0
 12 13  1  0
 13 14  1  0
 14 15  1  0
 15 16  1  0
 17 16  1  1
 17 18  1  0
 17 19  1  0
 19 20  1  6
 18 21  1  0
 19 22  1  0
 21 22  1  0
 21 23  1  1
 22 24  1  6
M  END
>  <%Rank>  (703) 
53.587786

>  <N_hits>  (703) 
2

>  <submitter_name>  (703) 
nan

>  <original SMILES>  (703) 
nan

>  <∆G_unbound>  (703) 
0.335171

>  <∆G_bound>  (703) 
-8.812347

>  <regarded>  (703) 
5L9K_0_A_δ,mArh-5cb5_P_0_P_α

>  <ref_pdb>  (703) 
nan

>  <smiles>  (703) 
CC1OC(OCCCCCC2NC3NCNC(N)C3N2)C(O)C1O

>  <submitter_email>  (703) 
nan

>  <disregarded>  (703) 


>  <LE>  (703) 
-0.381147

>  <submitter_institution>  (703) 
nan

>  <ref_mols>  (703) 
5L9K_0_A,mArh-5cb5_P_0_P

>  <N_constrained_atoms>  (703) 
19.0

>  <ref_url>  (703) 
nan

>  <method>  (703) 
nan

>  <comRMSD>  (703) 
0.760228

>  <N_unconstrained_atoms>  (703) 
5.0

>  <∆∆G>  (703) 
-9.147519

>  <runtime>  (703) 
49.397578

>  <generation_date>  (703) 
nan

$$$$
mArh-EU0056_0_A_α-mArh-x0967_0_A_α
     RDKit          3D

 13 14  0  0  0  0  0  0  0  0999 V2000
   -8.0780   13.2490    4.0880 N   0  0  0  0  0  0  0  0  0  0  0  0
   -8.4130   14.3860    3.2500 C   0  0  0  0  0  0  0  0  0  0  0  0
   -7.5700   14.6020    1.9770 C   0  0  2  0  0  0  0  0  0  0  0  0
   -7.9740   13.7620    0.7630 C   0  0  0  0  0  0  0  0  0  0  0  0
   -6.0440   14.5100    2.2010 C   0  0  0  0  0  0  0  0  0  0  0  0
   -7.3330   14.1770   -0.5080 N   0  0  0  0  0  0  0  0  0  0  0  0
   -5.2200   14.6710    0.9040 C   0  0  2  0  0  0  0  0  0  0  0  0
   -3.8930   16.0800    1.1120 Br  0  0  0  0  0  0  0  0  0  0  0  0
   -6.0730   14.9370   -0.3970 C   0  0  1  0  0  0  0  0  0  0  0  0
   -4.1700   13.6260    0.7010 C   0  0  0  0  0  0  0  0  0  0  0  0
   -5.3270   14.7380   -1.6590 N   0  0  0  0  0  0  0  0  0  0  0  0
   -3.5080   13.6830   -0.4580 C   0  0  0  0  0  0  0  0  0  0  0  0
   -3.8730   14.7210   -1.4710 C   0  0  0  0  0  0  0  0  0  0  0  0
  1  2  1  0
  3  2  1  1
  3  4  1  0
  3  5  1  0
  4  6  1  0
  5  7  1  0
  7  8  1  1
  9  6  1  6
  7  9  1  0
  7 10  1  0
  9 11  1  0
 10 12  2  0
 11 13  1  0
 12 13  1  0
M  END
>  <%Rank>  (704) 
53.664122

>  <N_hits>  (704) 
2

>  <submitter_name>  (704) 
nan

>  <original SMILES>  (704) 
nan

>  <∆G_unbound>  (704) 
0.270414

>  <∆G_bound>  (704) 
-2.822405

>  <regarded>  (704) 
mArh-EU0056_0_A_α,mArh-x0967_0_A_α

>  <ref_pdb>  (704) 
nan

>  <smiles>  (704) 
NCC1CNC2NCC=CC2(Br)C1

>  <submitter_email>  (704) 
nan

>  <disregarded>  (704) 


>  <LE>  (704) 
-0.237909

>  <submitter_institution>  (704) 
nan

>  <ref_mols>  (704) 
mArh-EU0056_0_A,mArh-x0967_0_A

>  <N_constrained_atoms>  (704) 
13.0

>  <ref_url>  (704) 
nan

>  <method>  (704) 
nan

>  <comRMSD>  (704) 
0.680903

>  <N_unconstrained_atoms>  (704) 
0.0

>  <∆∆G>  (704) 
-3.092819

>  <runtime>  (704) 
21.758707

>  <generation_date>  (704) 
nan

$$$$
mArh-5cb5_E_0_E_β-6WOJ_0_B_β
     RDKit          3D

 10  9  0  0  0  0  0  0  0  0999 V2000
   -1.1750   20.2680   -9.1420 O   0  0  0  0  0  0  0  0  0  0  0  0
   -0.2590   19.8510   -7.9350 P   0  0  0  0  0  0  0  0  0  0  0  0
   -1.3230   19.7380   -6.8120 O   0  0  0  0  0  0  0  0  0  0  0  0
    0.8750   20.7910   -7.7560 O   0  0  0  0  0  0  0  0  0  0  0  0
    0.0520   18.4370   -8.5820 O   0  0  0  0  0  0  0  0  0  0  0  0
   -1.7850   18.3900   -6.1750 P   0  0  0  0  0  0  0  0  0  0  0  0
   -0.4940   17.5280   -5.9010 O   0  0  0  0  0  0  0  0  0  0  0  0
   -2.8720   17.6580   -6.8300 O   0  0  0  0  0  0  0  0  0  0  0  0
   -2.1580   18.9380   -4.7170 O   0  0  0  0  0  0  0  0  0  0  0  0
    0.4310   17.5010   -4.6020 P   0  0  0  0  0  0  0  0  0  0  0  0
  1  2  1  0
  2  3  1  0
  2  4  2  0
  2  5  1  0
  3  6  1  0
  6  7  1  0
  6  8  2  0
  6  9  1  0
  7 10  1  0
M  END
>  <%Rank>  (705) 
53.740458

>  <N_hits>  (705) 
2

>  <submitter_name>  (705) 
nan

>  <original SMILES>  (705) 
nan

>  <∆G_unbound>  (705) 
0.627005

>  <∆G_bound>  (705) 
-7.165707

>  <regarded>  (705) 
mArh-5cb5_E_0_E_β,6WOJ_0_B_β

>  <ref_pdb>  (705) 
nan

>  <smiles>  (705) 
O=P(O)(O)OP(=O)(O)OP

>  <submitter_email>  (705) 
nan

>  <disregarded>  (705) 


>  <LE>  (705) 
-0.779271

>  <submitter_institution>  (705) 
nan

>  <ref_mols>  (705) 
mArh-5cb5_E_0_E,6WOJ_0_B

>  <N_constrained_atoms>  (705) 
10.0

>  <ref_url>  (705) 
nan

>  <method>  (705) 
nan

>  <comRMSD>  (705) 
0.860678

>  <N_unconstrained_atoms>  (705) 
0.0

>  <∆∆G>  (705) 
-7.792712

>  <runtime>  (705) 
22.585752

>  <generation_date>  (705) 
nan

$$$$
5CMS_0_O_β-5CB5_0_M_δ
     RDKit          3D

 21 22  0  0  0  0  0  0  0  0999 V2000
    0.0940   20.8480   -8.4390 O   0  0  0  0  0  0  0  0  0  0  0  0
   -0.7260   19.7430   -7.7980 P   0  0  0  0  0  0  0  0  0  0  0  0
   -1.7330   18.7530   -7.2340 O   0  0  0  0  0  0  0  0  0  0  0  0
    0.2530   19.5970   -6.5530 O   0  0  0  0  0  0  0  0  0  0  0  0
   -0.3200   18.6420   -8.9590 O   0  0  0  0  0  0  0  0  0  0  0  0
   -1.5660   17.8230   -6.0630 P   0  0  0  0  0  0  0  0  0  0  0  0
   -1.1990   16.7680   -5.0060 O   0  0  0  0  0  0  0  0  0  0  0  0
   -2.7130   16.8760   -6.7210 O   0  0  0  0  0  0  0  0  0  0  0  0
   -2.0720   18.9400   -4.9960 O   0  0  0  0  0  0  0  0  0  0  0  0
   -2.1570   16.0170   -4.3380 C   0  0  0  0  0  0  0  0  0  0  0  0
   -1.8590   16.0780   -2.8840 C   0  0  0  0  0  0  0  0  0  0  0  0
   -2.0880   14.8190   -2.2110 N   0  0  0  0  0  0  0  0  0  0  0  0
   -1.6770   15.0830   -0.8700 C   0  0  1  0  0  0  0  0  0  0  0  0
   -3.5330   14.7160   -2.1880 C   0  0  0  0  0  0  0  0  0  0  0  0
   -2.8400   14.4370   -0.1120 C   0  0  2  0  0  0  0  0  0  0  0  0
   -3.9160   15.0420   -0.8070 N   0  0  0  0  0  0  0  0  0  0  0  0
   -0.4650   14.4130   -0.4490 N   0  0  0  0  0  0  0  0  0  0  0  0
   -0.3260   14.7540    0.9560 C   0  0  0  0  0  0  0  0  0  0  0  0
   -2.7060   14.8310    1.3310 C   0  0  2  0  0  0  0  0  0  0  0  0
   -3.8060   15.7460    1.6360 N   0  0  0  0  0  0  0  0  0  0  0  0
   -1.4460   15.5180    1.3960 N   0  0  0  0  0  0  0  0  0  0  0  0
  1  2  1  0
  2  3  1  0
  2  4  1  0
  2  5  1  0
  3  6  1  0
  6  7  1  0
  6  8  1  0
  6  9  1  0
  7 10  1  0
 10 11  1  0
 11 12  1  0
 12 13  1  0
 12 14  1  0
 13 15  1  0
 14 16  1  0
 15 16  1  6
 13 17  1  1
 17 18  1  0
 15 19  1  0
 19 20  1  6
 18 21  1  0
 19 21  1  0
M  CHG  2   4  -1   8  -1
M  END
>  <%Rank>  (706) 
53.816794

>  <N_hits>  (706) 
2

>  <submitter_name>  (706) 
nan

>  <original SMILES>  (706) 
nan

>  <∆G_unbound>  (706) 
0.88229

>  <∆G_bound>  (706) 
-6.453989

>  <regarded>  (706) 
5CMS_0_O_β,5CB5_0_M_δ

>  <ref_pdb>  (706) 
nan

>  <smiles>  (706) 
NC1NCNC2C1NCN2CCO[PH]([O-])(O)O[PH]([O-])(O)O

>  <submitter_email>  (706) 
nan

>  <disregarded>  (706) 


>  <LE>  (706) 
-0.349347

>  <submitter_institution>  (706) 
nan

>  <ref_mols>  (706) 
5CMS_0_O,5CB5_0_M

>  <N_constrained_atoms>  (706) 
19.0

>  <ref_url>  (706) 
nan

>  <method>  (706) 
nan

>  <comRMSD>  (706) 
0.824278

>  <N_unconstrained_atoms>  (706) 
2.0

>  <∆∆G>  (706) 
-7.336279

>  <runtime>  (706) 
30.677593

>  <generation_date>  (706) 
nan

$$$$
mArh-6mea_B_0_B_β-5CMS_0_L_β
     RDKit          3D

 10  9  0  0  0  0  0  0  0  0999 V2000
   -1.5200   20.5860   -8.3210 O   0  0  0  0  0  0  0  0  0  0  0  0
   -0.1550   20.1550   -7.6200 P   0  0  0  0  0  0  0  0  0  0  0  0
   -0.6100   19.5610   -6.2340 O   0  0  0  0  0  0  0  0  0  0  0  0
    0.8260   21.2690   -7.5750 O   0  0  0  0  0  0  0  0  0  0  0  0
    0.3470   18.9180   -8.4540 O   0  0  0  0  0  0  0  0  0  0  0  0
   -1.4900   18.2930   -5.9520 P   0  0  0  0  0  0  0  0  0  0  0  0
   -0.8190   18.3200   -8.9170 O   0  0  0  0  0  0  0  0  0  0  0  0
   -0.4680   17.0750   -5.7610 O   0  0  0  0  0  0  0  0  0  0  0  0
   -2.6320   17.9320   -6.8190 O   0  0  0  0  0  0  0  0  0  0  0  0
   -1.8240   18.5400   -4.4370 O   0  0  0  0  0  0  0  0  0  0  0  0
  1  2  1  0
  2  3  1  0
  2  4  2  0
  2  5  1  0
  3  6  1  0
  5  7  1  0
  6  8  1  0
  6  9  2  0
  6 10  1  0
M  END
>  <%Rank>  (707) 
53.89313

>  <N_hits>  (707) 
2

>  <submitter_name>  (707) 
nan

>  <original SMILES>  (707) 
nan

>  <∆G_unbound>  (707) 
0.997484

>  <∆G_bound>  (707) 
-5.293986

>  <regarded>  (707) 
mArh-6mea_B_0_B_β,5CMS_0_L_β

>  <ref_pdb>  (707) 
nan

>  <smiles>  (707) 
O=P(O)(O)OP(=O)(O)OO

>  <submitter_email>  (707) 
nan

>  <disregarded>  (707) 


>  <LE>  (707) 
-0.629147

>  <submitter_institution>  (707) 
nan

>  <ref_mols>  (707) 
mArh-6mea_B_0_B,5CMS_0_L

>  <N_constrained_atoms>  (707) 
10.0

>  <ref_url>  (707) 
nan

>  <method>  (707) 
nan

>  <comRMSD>  (707) 
0.787091

>  <N_unconstrained_atoms>  (707) 
0.0

>  <∆∆G>  (707) 
-6.29147

>  <runtime>  (707) 
27.515666

>  <generation_date>  (707) 
nan

$$$$
5CB5_0_H_α-mArh-EU0569_0_A_α
     RDKit          3D

 27 29  0  0  0  0  0  0  0  0999 V2000
   -1.9080   21.3410   -8.0870 C   0  0  0  0  0  0  0  0  0  0  0  0
   -3.2870   21.7060   -8.6030 C   0  0  1  0  0  0  0  0  0  0  0  0
   -4.2740   20.8280   -8.0670 O   0  0  0  0  0  0  0  0  0  0  0  0
   -3.6910   23.0950   -8.1640 C   0  0  1  0  0  0  0  0  0  0  0  0
   -4.6300   23.7130   -9.0500 O   0  0  0  0  0  0  0  0  0  0  0  0
   -4.4480   21.2340   -6.7290 C   0  0  2  0  0  0  0  0  0  0  0  0
   -4.2440   22.8000   -6.7600 C   0  0  2  0  0  0  0  0  0  0  0  0
   -3.5360   20.4870   -5.8140 O   0  0  0  0  0  0  0  0  0  0  0  0
   -5.4790   23.5700   -6.6830 O   0  0  0  0  0  0  0  0  0  0  0  0
   -2.7950   19.3060   -6.3750 C   0  0  0  0  0  0  0  0  0  0  0  0
   -2.1510   18.2160   -5.3760 C   0  0  0  0  0  0  0  0  0  0  0  0
   -2.7850   16.7380   -5.1370 C   0  0  0  0  0  0  0  0  0  0  0  0
   -2.8580   16.0380   -3.6830 C   0  0  0  0  0  0  0  0  0  0  0  0
   -4.1260   15.2500   -3.0490 C   0  0  0  0  0  0  0  0  0  0  0  0
   -4.1710   15.1430   -1.5000 C   0  0  0  0  0  0  0  0  0  0  0  0
   -5.2800   15.0600   -0.5280 C   0  0  0  0  0  0  0  0  0  0  0  0
   -2.8760   15.1240   -0.9870 C   0  0  0  0  0  0  0  0  0  0  0  0
   -6.6240   15.0650   -0.8900 O   0  0  0  0  0  0  0  0  0  0  0  0
   -4.9580   14.9740    0.8520 C   0  0  0  0  0  0  0  0  0  0  0  0
   -2.6090   15.0310    0.3640 C   0  0  0  0  0  0  0  0  0  0  0  0
   -7.6410   14.7180    0.1130 C   0  0  0  0  0  0  0  0  0  0  0  0
   -5.9770   14.9190    1.8950 C   0  0  0  0  0  0  0  0  0  0  0  0
   -3.6370   14.9570    1.2730 C   0  0  0  0  0  0  0  0  0  0  0  0
   -7.2540   14.8130    1.5640 C   0  0  0  0  0  0  0  0  0  0  0  0
   -8.2390   14.8480    2.7000 C   0  0  0  0  0  0  0  0  0  0  0  0
   -7.7380   14.8000    3.9650 N   0  0  0  0  0  0  0  0  0  0  0  0
   -9.4530   14.9500    2.5440 O   0  0  0  0  0  0  0  0  0  0  0  0
  2  1  1  1
  2  3  1  0
  2  4  1  0
  4  5  1  6
  3  6  1  0
  4  7  1  0
  6  7  1  0
  6  8  1  1
  7  9  1  6
  8 10  1  0
 10 11  1  0
 11 12  1  0
 12 13  1  0
 13 14  1  0
 14 15  1  0
 15 16  1  0
 15 17  2  0
 16 18  1  0
 16 19  2  0
 17 20  1  0
 18 21  1  0
 19 22  1  0
 19 23  1  0
 20 23  2  0
 21 24  1  0
 22 24  2  0
 24 25  1  0
 25 26  1  0
 25 27  2  0
M  END
>  <%Rank>  (708) 
53.969466

>  <N_hits>  (708) 
2

>  <submitter_name>  (708) 
nan

>  <original SMILES>  (708) 
nan

>  <∆G_unbound>  (708) 
0.300824

>  <∆G_bound>  (708) 
-9.640824

>  <regarded>  (708) 
5CB5_0_H_α,mArh-EU0569_0_A_α

>  <ref_pdb>  (708) 
nan

>  <smiles>  (708) 
CC1OC(OCCCCCc2cccc3c2OCC(C(N)=O)=C3)C(O)C1O

>  <submitter_email>  (708) 
nan

>  <disregarded>  (708) 


>  <LE>  (708) 
-0.368209

>  <submitter_institution>  (708) 
nan

>  <ref_mols>  (708) 
5CB5_0_H,mArh-EU0569_0_A

>  <N_constrained_atoms>  (708) 
22.0

>  <ref_url>  (708) 
nan

>  <method>  (708) 
nan

>  <comRMSD>  (708) 
0.828954

>  <N_unconstrained_atoms>  (708) 
5.0

>  <∆∆G>  (708) 
-9.941649

>  <runtime>  (708) 
37.050997

>  <generation_date>  (708) 
nan

$$$$
mArh-x0844_0_A_α-mArh-5cb5_G_0_G_α
     RDKit          3D

 23 24  0  0  0  0  0  0  0  0999 V2000
   -7.3020   14.9670   -0.2910 O   0  0  0  0  0  0  0  0  0  0  0  0
   -6.0670   14.9470   -0.3690 C   0  0  0  0  0  0  0  0  0  0  0  0
   -5.2950   14.9190    0.7660 N   0  0  0  0  0  0  0  0  0  0  0  0
   -5.3470   14.9410   -1.7120 C   0  0  0  0  0  0  0  0  0  0  0  0
   -3.9430   14.7380    0.7660 C   0  0  0  0  0  0  0  0  0  0  0  0
   -3.8470   15.2830   -1.6730 C   0  0  2  0  0  0  0  0  0  0  0  0
   -3.1740   14.5900   -2.7830 O   0  0  0  0  0  0  0  0  0  0  0  0
   -3.2170   14.8930   -0.3530 C   0  0  0  0  0  0  0  0  0  0  0  0
   -2.1400   15.2030   -3.6410 C   0  0  0  0  0  0  0  0  0  0  0  0
   -2.6580   16.2920   -4.6250 C   0  0  0  0  0  0  0  0  0  0  0  0
   -1.7490   17.5060   -5.0600 C   0  0  0  0  0  0  0  0  0  0  0  0
   -2.2520   18.5540   -6.1230 C   0  0  0  0  0  0  0  0  0  0  0  0
   -2.4880   20.0580   -5.6990 C   0  0  0  0  0  0  0  0  0  0  0  0
   -3.9170   20.6490   -5.9170 C   0  0  0  0  0  0  0  0  0  0  0  0
   -4.0600   21.9190   -6.5200 O   0  0  0  0  0  0  0  0  0  0  0  0
   -5.0170   21.8340   -7.5600 C   0  0  2  0  0  0  0  0  0  0  0  0
   -4.3940   21.0770   -8.5710 O   0  0  0  0  0  0  0  0  0  0  0  0
   -5.3130   23.1530   -8.2570 C   0  0  1  0  0  0  0  0  0  0  0  0
   -5.5910   24.2410   -7.3570 O   0  0  0  0  0  0  0  0  0  0  0  0
   -3.4080   21.9540   -9.1280 C   0  0  1  0  0  0  0  0  0  0  0  0
   -3.9970   23.3710   -8.9950 C   0  0  1  0  0  0  0  0  0  0  0  0
   -2.0670   21.7150   -8.4350 C   0  0  0  0  0  0  0  0  0  0  0  0
   -4.2200   24.0100  -10.2360 O   0  0  0  0  0  0  0  0  0  0  0  0
  1  2  2  0
  2  3  1  0
  2  4  1  0
  3  5  1  0
  4  6  1  0
  6  7  1  6
  5  8  2  0
  6  8  1  0
  7  9  1  0
  9 10  1  0
 10 11  1  0
 11 12  1  0
 12 13  1  0
 13 14  1  0
 14 15  1  0
 16 15  1  1
 16 17  1  0
 16 18  1  0
 18 19  1  1
 17 20  1  0
 18 21  1  0
 20 21  1  0
 20 22  1  1
 21 23  1  6
M  END
>  <%Rank>  (709) 
54.045802

>  <N_hits>  (709) 
2

>  <submitter_name>  (709) 
nan

>  <original SMILES>  (709) 
nan

>  <∆G_unbound>  (709) 
0.300514

>  <∆G_bound>  (709) 
-9.118814

>  <regarded>  (709) 
mArh-x0844_0_A_α,mArh-5cb5_G_0_G_α

>  <ref_pdb>  (709) 
nan

>  <smiles>  (709) 
CC1OC(OCCCCCCOC2C=CNC(=O)C2)C(O)C1O

>  <submitter_email>  (709) 
nan

>  <disregarded>  (709) 


>  <LE>  (709) 
-0.409536

>  <submitter_institution>  (709) 
nan

>  <ref_mols>  (709) 
mArh-x0844_0_A,mArh-5cb5_G_0_G

>  <N_constrained_atoms>  (709) 
17.0

>  <ref_url>  (709) 
nan

>  <method>  (709) 
nan

>  <comRMSD>  (709) 
0.692509

>  <N_unconstrained_atoms>  (709) 
6.0

>  <∆∆G>  (709) 
-9.419329

>  <runtime>  (709) 
48.915714

>  <generation_date>  (709) 
nan

$$$$
mArh-3q6z_0_A_β-mArh-5cms_H_7_H_β
     RDKit          3D

 10  9  0  0  0  0  0  0  0  0999 V2000
   -1.6570   20.3050   -7.8850 O   0  0  0  0  0  0  0  0  0  0  0  0
   -0.2390   19.6050   -7.7610 P   0  0  0  0  0  0  0  0  0  0  0  0
   -0.1600   18.9660   -6.3330 O   0  0  0  0  0  0  0  0  0  0  0  0
    0.1140   18.6480   -8.8340 O   0  0  0  0  0  0  0  0  0  0  0  0
    0.7330   20.8620   -7.7060 O   0  0  0  0  0  0  0  0  0  0  0  0
   -1.3550   18.1520   -5.6780 P   0  0  0  0  0  0  0  0  0  0  0  0
   -0.6520   16.7730   -5.2480 O   0  0  0  0  0  0  0  0  0  0  0  0
   -1.9220   18.9050   -4.5340 O   0  0  0  0  0  0  0  0  0  0  0  0
   -2.6380   17.8260   -6.7400 N   0  0  0  0  0  0  0  0  0  0  0  0
   -3.1830   16.7420   -6.5080 O   0  0  0  0  0  0  0  0  0  0  0  0
  1  2  1  0
  2  3  1  0
  2  4  2  0
  2  5  1  0
  3  6  1  0
  6  7  1  0
  6  8  2  0
  6  9  1  0
  9 10  2  0
M  END
>  <%Rank>  (710) 
54.122137

>  <N_hits>  (710) 
2

>  <submitter_name>  (710) 
nan

>  <original SMILES>  (710) 
nan

>  <∆G_unbound>  (710) 
0.984897

>  <∆G_bound>  (710) 
-7.570098

>  <regarded>  (710) 
mArh-3q6z_0_A_β,mArh-5cms_H_7_H_β

>  <ref_pdb>  (710) 
nan

>  <smiles>  (710) 
O=NP(=O)(O)OP(=O)(O)O

>  <submitter_email>  (710) 
nan

>  <disregarded>  (710) 


>  <LE>  (710) 
-0.855499

>  <submitter_institution>  (710) 
nan

>  <ref_mols>  (710) 
mArh-3q6z_0_A,mArh-5cms_H_7_H

>  <N_constrained_atoms>  (710) 
10.0

>  <ref_url>  (710) 
nan

>  <method>  (710) 
nan

>  <comRMSD>  (710) 
0.903594

>  <N_unconstrained_atoms>  (710) 
0.0

>  <∆∆G>  (710) 
-8.554995

>  <runtime>  (710) 
28.273113

>  <generation_date>  (710) 
nan

$$$$
5CB5_0_P_β-5CMS_0_F_α
     RDKit          3D

 17 17  0  0  0  0  0  0  0  0999 V2000
   -1.5070   21.7000   -8.6810 O   0  0  0  0  0  0  0  0  0  0  0  0
   -0.4480   20.4530   -8.1670 P   0  0  0  0  0  0  0  0  0  0  0  0
   -0.7030   19.8120   -6.6650 O   0  0  0  0  0  0  0  0  0  0  0  0
   -1.7690   21.7880  -10.0610 C   0  0  1  0  0  0  0  0  0  0  0  0
    0.4350   21.5490   -7.5840 O   0  0  0  0  0  0  0  0  0  0  0  0
   -1.2020   19.3360   -8.8130 O   0  0  0  0  0  0  0  0  0  0  0  0
   -3.0780   22.1220  -10.3340 O   0  0  0  0  0  0  0  0  0  0  0  0
   -0.9830   22.9150  -10.8070 C   0  0  2  0  0  0  0  0  0  0  0  0
   -1.2540   18.4480   -6.1310 P   0  0  0  0  0  0  0  0  0  0  0  0
    0.2160   23.1660  -10.1670 O   0  0  0  0  0  0  0  0  0  0  0  0
   -3.2360   23.4050  -10.7840 C   0  0  2  0  0  0  0  0  0  0  0  0
   -1.9030   24.1010  -10.6900 C   0  0  2  0  0  0  0  0  0  0  0  0
   -1.6110   17.0710   -5.5500 O   0  0  0  0  0  0  0  0  0  0  0  0
   -2.3630   18.2700   -7.3070 O   0  0  0  0  0  0  0  0  0  0  0  0
   -1.8010   19.2120   -4.7830 O   0  0  0  0  0  0  0  0  0  0  0  0
   -4.2770   24.0910  -10.1640 O   0  0  0  0  0  0  0  0  0  0  0  0
   -1.6650   24.9100  -11.8320 O   0  0  0  0  0  0  0  0  0  0  0  0
  1  2  1  0
  2  3  1  0
  4  1  1  1
  2  5  1  0
  2  6  1  0
  4  7  1  0
  4  8  1  0
  3  9  1  0
  8 10  1  1
  7 11  1  0
  8 12  1  0
 11 12  1  0
  9 13  1  0
  9 14  1  0
  9 15  1  0
 11 16  1  1
 12 17  1  6
M  CHG  2   5  -1  14  -1
M  END
>  <%Rank>  (711) 
54.198473

>  <N_hits>  (711) 
2

>  <submitter_name>  (711) 
nan

>  <original SMILES>  (711) 
nan

>  <∆G_unbound>  (711) 
0.972863

>  <∆G_bound>  (711) 
-4.507822

>  <regarded>  (711) 
5CB5_0_P_β,5CMS_0_F_α

>  <ref_pdb>  (711) 
nan

>  <smiles>  (711) 
[O-][PH](O)(O)O[PH]([O-])(O)OC1OC(O)C(O)C1O

>  <submitter_email>  (711) 
nan

>  <disregarded>  (711) 


>  <LE>  (711) 
-0.322393

>  <submitter_institution>  (711) 
nan

>  <ref_mols>  (711) 
5CB5_0_P,5CMS_0_F

>  <N_constrained_atoms>  (711) 
17.0

>  <ref_url>  (711) 
nan

>  <method>  (711) 
nan

>  <comRMSD>  (711) 
0.826273

>  <N_unconstrained_atoms>  (711) 
0.0

>  <∆∆G>  (711) 
-5.480686

>  <runtime>  (711) 
37.834942

>  <generation_date>  (711) 
nan

$$$$
mArh-x0910_1_A_α-mArh-x0471_0_A_α
     RDKit          3D

 16 17  0  0  0  0  0  0  0  0999 V2000
   -7.8650   14.3430    1.7280 N   0  0  0  0  0  0  0  0  0  0  0  0
   -8.0300   14.2400    3.1470 N   0  0  0  0  0  0  0  0  0  0  0  0
   -8.9200   15.1320    3.7480 C   0  0  0  0  0  0  0  0  0  0  0  0
   -6.4920   13.9600    1.3300 C   0  0  2  0  0  0  0  0  0  0  0  0
   -5.5480   14.8670    0.6850 N   0  0  0  0  0  0  0  0  0  0  0  0
   -6.5440   12.9060    0.2070 C   0  0  0  0  0  0  0  0  0  0  0  0
   -9.4570   16.0430    3.1220 O   0  0  0  0  0  0  0  0  0  0  0  0
   -9.1840   14.8720    5.2280 C   0  0  0  0  0  0  0  0  0  0  0  0
   -6.6710   13.7580   -0.9950 N   0  0  0  0  0  0  0  0  0  0  0  0
   -5.8660   14.8690   -0.6690 N   0  0  0  0  0  0  0  0  0  0  0  0
   -4.2120   14.9600    1.0600 C   0  0  0  0  0  0  0  0  0  0  0  0
   -9.6860   13.4500    5.4720 C   0  0  0  0  0  0  0  0  0  0  0  0
   -7.9400   15.1720    6.0480 C   0  0  0  0  0  0  0  0  0  0  0  0
   -4.9180   15.2440   -1.5950 C   0  0  0  0  0  0  0  0  0  0  0  0
   -3.2540   15.2160    0.1550 C   0  0  0  0  0  0  0  0  0  0  0  0
   -3.6360   15.4120   -1.2420 C   0  0  0  0  0  0  0  0  0  0  0  0
  1  2  1  0
  2  3  1  0
  4  1  1  6
  4  5  1  0
  4  6  1  0
  3  7  2  0
  3  8  1  0
  6  9  1  0
  5 10  1  0
  9 10  1  0
  5 11  1  0
  8 12  1  0
  8 13  1  0
 10 14  1  0
 11 15  2  0
 14 16  2  0
 15 16  1  0
M  END
>  <%Rank>  (712) 
54.274809

>  <N_hits>  (712) 
2

>  <submitter_name>  (712) 
nan

>  <original SMILES>  (712) 
nan

>  <∆G_unbound>  (712) 
0.501731

>  <∆G_bound>  (712) 
-5.204667

>  <regarded>  (712) 
mArh-x0910_1_A_α,mArh-x0471_0_A_α

>  <ref_pdb>  (712) 
nan

>  <smiles>  (712) 
CC(C)C(=O)NNC1CNN2C=CC=CN12

>  <submitter_email>  (712) 
nan

>  <disregarded>  (712) 


>  <LE>  (712) 
-0.35665

>  <submitter_institution>  (712) 
nan

>  <ref_mols>  (712) 
mArh-x0910_1_A,mArh-x0471_0_A

>  <N_constrained_atoms>  (712) 
13.0

>  <ref_url>  (712) 
nan

>  <method>  (712) 
nan

>  <comRMSD>  (712) 
0.63065

>  <N_unconstrained_atoms>  (712) 
3.0

>  <∆∆G>  (712) 
-5.706397

>  <runtime>  (712) 
30.938026

>  <generation_date>  (712) 
nan

$$$$
5CMS_0_C_β-mArh-x0722_0_A_α
     RDKit          3D

 24 24  0  0  0  0  0  0  0  0999 V2000
   -1.8510   20.5800   -7.8740 O   0  0  0  0  0  0  0  0  0  0  0  0
   -0.3400   19.8410   -7.9170 P   0  0  0  0  0  0  0  0  0  0  0  0
   -0.5820   19.3050   -6.4900 O   0  0  0  0  0  0  0  0  0  0  0  0
    0.9900   20.7060   -7.4780 O   0  0  0  0  0  0  0  0  0  0  0  0
   -0.2280   18.4220   -8.6480 O   0  0  0  0  0  0  0  0  0  0  0  0
   -1.3430   17.8670   -6.1520 P   0  0  0  0  0  0  0  0  0  0  0  0
   -0.5410   16.6540   -5.4020 O   0  0  0  0  0  0  0  0  0  0  0  0
   -1.9730   18.3740   -4.8920 O   0  0  0  0  0  0  0  0  0  0  0  0
   -2.8280   17.7100   -6.7430 O   0  0  0  0  0  0  0  0  0  0  0  0
   -1.1680   15.8560   -4.4700 C   0  0  0  0  0  0  0  0  0  0  0  0
   -0.0700   15.4440   -3.4670 C   0  0  0  0  0  0  0  0  0  0  0  0
   -0.4520   14.7210   -2.1850 C   0  0  0  0  0  0  0  0  0  0  0  0
   -1.9680   14.4900   -2.0090 C   0  0  0  0  0  0  0  0  0  0  0  0
   -2.3080   14.7160   -0.5490 C   0  0  0  0  0  0  0  0  0  0  0  0
   -3.5200   15.2060   -0.0840 C   0  0  0  0  0  0  0  0  0  0  0  0
   -1.5340   14.5070    0.5470 N   0  0  0  0  0  0  0  0  0  0  0  0
   -0.1780   14.0140    0.6100 C   0  0  0  0  0  0  0  0  0  0  0  0
   -4.7040   15.6010   -0.8750 C   0  0  0  0  0  0  0  0  0  0  0  0
   -2.2060   14.8360    1.6200 N   0  0  0  0  0  0  0  0  0  0  0  0
   -3.4210   15.2750    1.2960 C   0  0  0  0  0  0  0  0  0  0  0  0
   -4.4360   15.7510    2.2280 C   0  0  0  0  0  0  0  0  0  0  0  0
   -5.9020   14.7040   -0.6210 C   0  0  0  0  0  0  0  0  0  0  0  0
   -7.0520   15.1380   -0.8410 O   0  0  0  0  0  0  0  0  0  0  0  0
   -5.7270   13.3600   -0.1370 N   0  0  0  0  0  0  0  0  0  0  0  0
  1  2  1  0
  2  3  1  0
  2  4  1  0
  2  5  1  0
  3  6  1  0
  6  7  1  0
  6  8  1  0
  6  9  1  0
  7 10  1  0
 10 11  1  0
 11 12  1  0
 12 13  1  0
 13 14  1  0
 14 15  2  0
 14 16  1  0
 16 17  1  0
 15 18  1  0
 16 19  1  0
 15 20  1  0
 19 20  2  0
 20 21  1  0
 18 22  1  0
 22 23  2  0
 22 24  1  0
M  CHG  2   4  -1   8  -1
M  END
>  <%Rank>  (713) 
54.351145

>  <N_hits>  (713) 
2

>  <submitter_name>  (713) 
nan

>  <original SMILES>  (713) 
nan

>  <∆G_unbound>  (713) 
0.832888

>  <∆G_bound>  (713) 
-11.138744

>  <regarded>  (713) 
5CMS_0_C_β,mArh-x0722_0_A_α

>  <ref_pdb>  (713) 
nan

>  <smiles>  (713) 
Cc1nn(C)c(CCCCO[PH]([O-])(O)O[PH]([O-])(O)O)c1CC(N)=O

>  <submitter_email>  (713) 
nan

>  <disregarded>  (713) 


>  <LE>  (713) 
-0.498818

>  <submitter_institution>  (713) 
nan

>  <ref_mols>  (713) 
5CMS_0_C,mArh-x0722_0_A

>  <N_constrained_atoms>  (713) 
21.0

>  <ref_url>  (713) 
nan

>  <method>  (713) 
nan

>  <comRMSD>  (713) 
0.927227

>  <N_unconstrained_atoms>  (713) 
3.0

>  <∆∆G>  (713) 
-11.971632

>  <runtime>  (713) 
37.350932

>  <generation_date>  (713) 
nan

$$$$
5CMS_0_D_α-5LW0_0_A_γ
     RDKit          3D

 16 16  0  0  0  0  0  0  0  0999 V2000
   -1.1530   16.4090   -5.0460 O   0  0  0  0  0  0  0  0  0  0  0  0
   -1.3810   17.7690   -6.0250 P   0  0  0  0  0  0  0  0  0  0  0  0
   -2.7790   17.7430   -6.8790 O   0  0  0  0  0  0  0  0  0  0  0  0
    0.0760   15.9130   -4.5830 C   0  0  1  0  0  0  0  0  0  0  0  0
   -1.9930   18.6750   -4.9720 O   0  0  0  0  0  0  0  0  0  0  0  0
   -0.2520   18.9120   -6.4780 O   0  0  0  0  0  0  0  0  0  0  0  0
    0.0380   15.9000   -3.2210 O   0  0  0  0  0  0  0  0  0  0  0  0
    0.2770   14.4420   -4.9720 C   0  0  1  0  0  0  0  0  0  0  0  0
   -0.3280   19.6880   -7.8230 P   0  0  0  0  0  0  0  0  0  0  0  0
    1.6240   14.1010   -5.0830 O   0  0  0  0  0  0  0  0  0  0  0  0
   -0.6180   14.7620   -2.8240 C   0  0  0  0  0  0  0  0  0  0  0  0
   -0.1180   13.6620   -3.7230 C   0  0  1  0  0  0  0  0  0  0  0  0
   -1.8500   20.2870   -7.5900 O   0  0  0  0  0  0  0  0  0  0  0  0
   -0.0950   18.4010   -8.7280 O   0  0  0  0  0  0  0  0  0  0  0  0
    0.9920   20.6520   -7.4220 O   0  0  0  0  0  0  0  0  0  0  0  0
   -1.0390   12.6880   -4.0280 O   0  0  0  0  0  0  0  0  0  0  0  0
  1  2  1  0
  2  3  1  0
  4  1  1  6
  2  5  1  0
  2  6  1  0
  4  7  1  0
  4  8  1  0
  6  9  1  0
  8 10  1  1
  7 11  1  0
  8 12  1  0
 11 12  1  0
  9 13  1  0
  9 14  1  0
  9 15  1  0
 12 16  1  6
M  CHG  2   3  -1  14  -1
M  END
>  <%Rank>  (714) 
54.427481

>  <N_hits>  (714) 
2

>  <submitter_name>  (714) 
nan

>  <original SMILES>  (714) 
nan

>  <∆G_unbound>  (714) 
0.817504

>  <∆G_bound>  (714) 
-7.06538

>  <regarded>  (714) 
5CMS_0_D_α,5LW0_0_A_γ

>  <ref_pdb>  (714) 
nan

>  <smiles>  (714) 
[O-][PH](O)(O)O[PH]([O-])(O)OC1OCC(O)C1O

>  <submitter_email>  (714) 
nan

>  <disregarded>  (714) 


>  <LE>  (714) 
-0.49268

>  <submitter_institution>  (714) 
nan

>  <ref_mols>  (714) 
5CMS_0_D,5LW0_0_A

>  <N_constrained_atoms>  (714) 
16.0

>  <ref_url>  (714) 
nan

>  <method>  (714) 
nan

>  <comRMSD>  (714) 
0.894487

>  <N_unconstrained_atoms>  (714) 
0.0

>  <∆∆G>  (714) 
-7.882884

>  <runtime>  (714) 
29.329608

>  <generation_date>  (714) 
nan

$$$$
mArh-x1018_0_A_α-5CB5_0_J_α
     RDKit          3D

 24 26  0  0  0  0  0  0  0  0999 V2000
   -8.2160   14.5710    0.2370 Cl  0  0  0  0  0  0  0  0  0  0  0  0
   -6.5000   14.6370    0.0130 C   0  0  0  0  0  0  0  0  0  0  0  0
   -5.6560   14.6400    1.2340 C   0  0  0  0  0  0  0  0  0  0  0  0
   -6.0430   14.6790   -1.2210 N   0  0  0  0  0  0  0  0  0  0  0  0
   -4.6670   14.7380   -1.3420 N   0  0  0  0  0  0  0  0  0  0  0  0
   -4.3580   14.9060    1.0690 C   0  0  0  0  0  0  0  0  0  0  0  0
   -3.9060   14.4180   -2.5130 N   0  0  0  0  0  0  0  0  0  0  0  0
   -3.7950   15.1910   -0.2810 C   0  0  1  0  0  0  0  0  0  0  0  0
   -3.9180   15.4550   -3.5760 C   0  0  0  0  0  0  0  0  0  0  0  0
   -2.5510   14.5080   -0.5860 N   0  0  0  0  0  0  0  0  0  0  0  0
   -2.5450   14.3430   -2.0370 N   0  0  0  0  0  0  0  0  0  0  0  0
   -2.6340   15.8270   -4.4290 C   0  0  0  0  0  0  0  0  0  0  0  0
   -2.7640   16.8720   -5.6280 C   0  0  0  0  0  0  0  0  0  0  0  0
   -2.1740   18.3650   -5.5800 C   0  0  0  0  0  0  0  0  0  0  0  0
   -2.8130   19.4560   -6.5520 C   0  0  0  0  0  0  0  0  0  0  0  0
   -3.7190   20.5210   -6.0300 O   0  0  0  0  0  0  0  0  0  0  0  0
   -4.5190   21.3100   -7.0020 C   0  0  2  0  0  0  0  0  0  0  0  0
   -4.1490   20.9700   -8.3230 O   0  0  0  0  0  0  0  0  0  0  0  0
   -4.3550   22.8770   -6.9290 C   0  0  2  0  0  0  0  0  0  0  0  0
   -5.6220   23.5800   -6.9580 O   0  0  0  0  0  0  0  0  0  0  0  0
   -3.1800   21.9210   -8.7660 C   0  0  1  0  0  0  0  0  0  0  0  0
   -3.6200   23.2680   -8.2200 C   0  0  1  0  0  0  0  0  0  0  0  0
   -1.7840   21.4990   -8.3350 C   0  0  0  0  0  0  0  0  0  0  0  0
   -4.5020   23.9430   -9.1360 O   0  0  0  0  0  0  0  0  0  0  0  0
  1  2  1  0
  2  3  1  0
  2  4  2  0
  4  5  1  0
  3  6  2  0
  5  7  1  0
  5  8  1  0
  8  6  1  1
  7  9  1  0
  8 10  1  0
  7 11  1  0
 10 11  1  0
  9 12  1  0
 12 13  1  0
 13 14  1  0
 14 15  1  0
 15 16  1  0
 17 16  1  1
 17 18  1  0
 17 19  1  0
 19 20  1  6
 18 21  1  0
 19 22  1  0
 21 22  1  0
 21 23  1  1
 22 24  1  6
M  END
>  <%Rank>  (715) 
54.503817

>  <N_hits>  (715) 
2

>  <submitter_name>  (715) 
nan

>  <original SMILES>  (715) 
nan

>  <∆G_unbound>  (715) 
0.363392

>  <∆G_bound>  (715) 
-7.608957

>  <regarded>  (715) 
mArh-x1018_0_A_α,5CB5_0_J_α

>  <ref_pdb>  (715) 
nan

>  <smiles>  (715) 
CC1OC(OCCCCCN2NNC3C=CC(Cl)=NN32)C(O)C1O

>  <submitter_email>  (715) 
nan

>  <disregarded>  (715) 


>  <LE>  (715) 
-0.332181

>  <submitter_institution>  (715) 
nan

>  <ref_mols>  (715) 
mArh-x1018_0_A,5CB5_0_J

>  <N_constrained_atoms>  (715) 
19.0

>  <ref_url>  (715) 
nan

>  <method>  (715) 
nan

>  <comRMSD>  (715) 
0.747884

>  <N_unconstrained_atoms>  (715) 
5.0

>  <∆∆G>  (715) 
-7.97235

>  <runtime>  (715) 
34.622763

>  <generation_date>  (715) 
nan

$$$$
mArh-3q6z_0_A_α-mArh-x0421_0_A_α
     RDKit          3D

 26 28  0  0  0  0  0  0  0  0999 V2000
   -1.4170   22.1800   -7.7660 C   0  0  0  0  0  0  0  0  0  0  0  0
   -2.9220   22.2140   -7.8880 C   0  0  2  0  0  0  0  0  0  0  0  0
   -3.5970   23.6010   -7.8010 C   0  0  1  0  0  0  0  0  0  0  0  0
   -3.4250   21.4360   -6.7950 O   0  0  0  0  0  0  0  0  0  0  0  0
   -4.5470   23.8460   -8.8570 O   0  0  0  0  0  0  0  0  0  0  0  0
   -4.3120   23.5740   -6.4420 C   0  0  2  0  0  0  0  0  0  0  0  0
   -4.5770   22.0940   -6.2880 C   0  0  1  0  0  0  0  0  0  0  0  0
   -5.5570   24.2720   -6.4710 O   0  0  0  0  0  0  0  0  0  0  0  0
   -5.5280   21.7580   -7.2330 O   0  0  0  0  0  0  0  0  0  0  0  0
   -4.7410   20.8660   -7.9610 C   0  0  0  0  0  0  0  0  0  0  0  0
   -4.1630   19.9000   -6.8960 C   0  0  0  0  0  0  0  0  0  0  0  0
   -2.6080   19.6580   -6.6570 C   0  0  0  0  0  0  0  0  0  0  0  0
   -2.1080   18.1710   -6.4680 C   0  0  0  0  0  0  0  0  0  0  0  0
   -1.8840   17.4980   -5.0640 C   0  0  0  0  0  0  0  0  0  0  0  0
   -2.6610   16.1480   -4.7120 C   0  0  0  0  0  0  0  0  0  0  0  0
   -3.3060   15.8910   -3.3720 N   0  0  0  0  0  0  0  0  0  0  0  0
   -2.7370   15.1030   -2.3360 C   0  0  0  0  0  0  0  0  0  0  0  0
   -1.6770   14.5190   -2.5240 O   0  0  0  0  0  0  0  0  0  0  0  0
   -3.4100   14.9940   -0.9830 C   0  0  0  0  0  0  0  0  0  0  0  0
   -2.7520   14.9600    0.2480 C   0  0  0  0  0  0  0  0  0  0  0  0
   -4.7890   14.9000   -0.7300 N   0  0  0  0  0  0  0  0  0  0  0  0
   -3.7150   14.8440    1.2040 N   0  0  0  0  0  0  0  0  0  0  0  0
   -4.9230   14.8080    0.5930 C   0  0  0  0  0  0  0  0  0  0  0  0
   -6.2670   14.6740    1.3700 C   0  0  0  0  0  0  0  0  0  0  0  0
   -7.5970   14.6430    0.6650 C   0  0  0  0  0  0  0  0  0  0  0  0
   -7.0600   13.3960    1.3100 C   0  0  0  0  0  0  0  0  0  0  0  0
  2  1  1  1
  2  3  1  0
  2  4  1  0
  3  5  1  6
  3  6  1  0
  4  7  1  0
  6  7  1  0
  6  8  1  6
  7  9  1  6
  9 10  1  0
 10 11  1  0
 11 12  1  0
 12 13  1  0
 13 14  1  0
 14 15  1  0
 15 16  1  0
 16 17  1  0
 17 18  2  0
 17 19  1  0
 19 20  2  0
 19 21  1  0
 20 22  1  0
 21 23  2  0
 22 23  1  0
 23 24  1  0
 24 25  1  0
 24 26  1  0
 25 26  1  0
M  END
>  <%Rank>  (716) 
54.580153

>  <N_hits>  (716) 
2

>  <submitter_name>  (716) 
nan

>  <original SMILES>  (716) 
nan

>  <∆G_unbound>  (716) 
0.982514

>  <∆G_bound>  (716) 
-6.635555

>  <regarded>  (716) 
mArh-3q6z_0_A_α,mArh-x0421_0_A_α

>  <ref_pdb>  (716) 
nan

>  <smiles>  (716) 
CC1OC(OCCCCCCNC(=O)c2c[nH]c(C3CC3)n2)C(O)C1O

>  <submitter_email>  (716) 
nan

>  <disregarded>  (716) 


>  <LE>  (716) 
-0.293003

>  <submitter_institution>  (716) 
nan

>  <ref_mols>  (716) 
mArh-3q6z_0_A,mArh-x0421_0_A

>  <N_constrained_atoms>  (716) 
20.0

>  <ref_url>  (716) 
nan

>  <method>  (716) 
nan

>  <comRMSD>  (716) 
0.730484

>  <N_unconstrained_atoms>  (716) 
6.0

>  <∆∆G>  (716) 
-7.618068

>  <runtime>  (716) 
39.13952

>  <generation_date>  (716) 
nan

$$$$
3Q6Z_0_A_α-mArh-5cb5_A_0_A_β
     RDKit          3D

 17 17  0  0  0  0  0  0  0  0999 V2000
   -1.7740   21.6420   -7.5310 C   0  0  0  0  0  0  0  0  0  0  0  0
   -0.5610   20.3160   -7.7770 P   0  0  2  0  0  0  0  0  0  0  0  0
   -0.6020   19.2970   -6.5740 O   0  0  0  0  0  0  0  0  0  0  0  0
   -3.1610   21.7770   -8.1950 C   0  0  2  0  0  0  0  0  0  0  0  0
    0.8240   20.8090   -7.9740 O   0  0  0  0  0  0  0  0  0  0  0  0
   -0.9570   19.2720   -8.9190 O   0  0  0  0  0  0  0  0  0  0  0  0
   -3.8680   23.1580   -8.3840 C   0  0  2  0  0  0  0  0  0  0  0  0
   -4.0960   21.0920   -7.3420 O   0  0  0  0  0  0  0  0  0  0  0  0
   -3.1790   24.3020   -8.1140 O   0  0  0  0  0  0  0  0  0  0  0  0
   -1.7480   18.3550   -6.0610 P   0  0  0  0  0  0  0  0  0  0  0  0
   -5.1610   23.1550   -7.5950 C   0  0  1  0  0  0  0  0  0  0  0  0
   -5.3650   21.6920   -7.6060 C   0  0  2  0  0  0  0  0  0  0  0  0
   -5.0730   23.6820   -6.2660 O   0  0  0  0  0  0  0  0  0  0  0  0
   -6.3340   21.3590   -6.6520 O   0  0  0  0  0  0  0  0  0  0  0  0
   -1.0480   17.0780   -5.4300 O   0  0  0  0  0  0  0  0  0  0  0  0
   -2.8400   18.0060   -6.9890 O   0  0  0  0  0  0  0  0  0  0  0  0
   -2.2030   19.1800   -4.7860 O   0  0  0  0  0  0  0  0  0  0  0  0
  1  2  1  0
  2  3  1  0
  4  1  1  1
  2  5  2  0
  2  6  1  6
  4  7  1  0
  4  8  1  0
  7  9  1  1
  3 10  1  0
  7 11  1  0
  8 12  1  0
 11 12  1  0
 11 13  1  1
 12 14  1  1
 10 15  1  0
 10 16  2  0
 10 17  1  0
M  END
>  <%Rank>  (717) 
54.656489

>  <N_hits>  (717) 
2

>  <submitter_name>  (717) 
nan

>  <original SMILES>  (717) 
nan

>  <∆G_unbound>  (717) 
2.537257

>  <∆G_bound>  (717) 
-10.354689

>  <regarded>  (717) 
3Q6Z_0_A_α,mArh-5cb5_A_0_A_β

>  <ref_pdb>  (717) 
nan

>  <smiles>  (717) 
O=P(O)(O)OP(=O)(O)CC1OC(O)C(O)C1O

>  <submitter_email>  (717) 
nan

>  <disregarded>  (717) 


>  <LE>  (717) 
-0.75835

>  <submitter_institution>  (717) 
nan

>  <ref_mols>  (717) 
3Q6Z_0_A,mArh-5cb5_A_0_A

>  <N_constrained_atoms>  (717) 
17.0

>  <ref_url>  (717) 
nan

>  <method>  (717) 
nan

>  <comRMSD>  (717) 
1.052849

>  <N_unconstrained_atoms>  (717) 
0.0

>  <∆∆G>  (717) 
-12.891946

>  <runtime>  (717) 
35.597883

>  <generation_date>  (717) 
nan

$$$$
mArh-x0711_0_A_α-5CB5_0_P_δ
     RDKit          3D

 20 21  0  0  0  0  0  0  0  0999 V2000
   -1.7400   15.1040   -2.4380 N   0  0  0  0  0  0  0  0  0  0  0  0
   -0.5800   14.1070   -3.1370 S   0  0  0  0  0  0  0  0  0  0  0  0
   -1.5500   12.9610   -4.0890 C   0  0  0  0  0  0  0  0  0  0  0  0
   -2.9620   14.5350   -1.8470 C   0  0  2  0  0  0  0  0  0  0  0  0
    0.1430   14.9460   -4.0670 O   0  0  0  0  0  0  0  0  0  0  0  0
    0.1190   13.3830   -2.0960 O   0  0  0  0  0  0  0  0  0  0  0  0
   -4.1110   15.3970   -2.1580 C   0  0  0  0  0  0  0  0  0  0  0  0
   -2.9160   14.1850   -0.3090 C   0  0  2  0  0  0  0  0  0  0  0  0
   -5.2890   15.1460   -1.6090 C   0  0  0  0  0  0  0  0  0  0  0  0
   -4.1880   13.3270   -0.0730 C   0  0  0  0  0  0  0  0  0  0  0  0
   -2.9680   15.1810    0.8900 C   0  0  2  0  0  0  0  0  0  0  0  0
   -1.5470   13.5610   -0.1060 C   0  0  0  0  0  0  0  0  0  0  0  0
   -3.6330   16.4500    0.8570 N   0  0  0  0  0  0  0  0  0  0  0  0
   -5.4980   13.9750   -0.6630 C   0  0  1  0  0  0  0  0  0  0  0  0
   -0.5370   14.5670   -0.3350 N   0  0  0  0  0  0  0  0  0  0  0  0
   -1.7060   15.3160    1.5810 N   0  0  0  0  0  0  0  0  0  0  0  0
   -6.5680   14.3940    0.3670 C   0  0  0  0  0  0  0  0  0  0  0  0
   -0.4490   15.3360    0.8650 C   0  0  0  0  0  0  0  0  0  0  0  0
   -6.1710   14.6950    1.6430 N   0  0  0  0  0  0  0  0  0  0  0  0
   -7.7560   14.4790    0.0820 O   0  0  0  0  0  0  0  0  0  0  0  0
  2  1  1  0
  2  3  1  0
  4  1  1  1
  2  5  2  0
  2  6  2  0
  4  7  1  0
  4  8  1  0
  7  9  2  0
  8 10  1  1
  8 11  1  0
  8 12  1  0
 11 13  1  6
  9 14  1  0
 10 14  1  0
 12 15  1  0
 11 16  1  0
 14 17  1  1
 15 18  1  0
 16 18  1  0
 17 19  1  0
 17 20  2  0
M  END
>  <%Rank>  (718) 
54.732824

>  <N_hits>  (718) 
2

>  <submitter_name>  (718) 
nan

>  <original SMILES>  (718) 
nan

>  <∆G_unbound>  (718) 
1.371949

>  <∆G_bound>  (718) 
0.203911

>  <regarded>  (718) 
mArh-x0711_0_A_α,5CB5_0_P_δ

>  <ref_pdb>  (718) 
nan

>  <smiles>  (718) 
CS(=O)(=O)NC1C=CC(C(N)=O)CC12CNCNC2N

>  <submitter_email>  (718) 
nan

>  <disregarded>  (718) 


>  <LE>  (718) 
-0.058402

>  <submitter_institution>  (718) 
nan

>  <ref_mols>  (718) 
mArh-x0711_0_A,5CB5_0_P

>  <N_constrained_atoms>  (718) 
20.0

>  <ref_url>  (718) 
nan

>  <method>  (718) 
nan

>  <comRMSD>  (718) 
0.763964

>  <N_unconstrained_atoms>  (718) 
0.0

>  <∆∆G>  (718) 
-1.168039

>  <runtime>  (718) 
29.984059

>  <generation_date>  (718) 
nan

$$$$
5CMS_0_N_α-mArh-x0766_1_B_α
     RDKit          3D

 24 26  0  0  0  0  0  0  0  0999 V2000
   -2.0170   21.3270   -8.9550 C   0  0  0  0  0  0  0  0  0  0  0  0
   -3.0000   22.4220   -9.3400 C   0  0  2  0  0  0  0  0  0  0  0  0
   -4.0700   22.5130   -8.4130 O   0  0  0  0  0  0  0  0  0  0  0  0
   -3.9140   22.2990  -10.5470 C   0  0  2  0  0  0  0  0  0  0  0  0
   -3.5440   21.8910  -11.8400 O   0  0  0  0  0  0  0  0  0  0  0  0
   -5.0700   23.2670   -9.1430 C   0  0  2  0  0  0  0  0  0  0  0  0
   -4.4330   23.6640  -10.4890 C   0  0  2  0  0  0  0  0  0  0  0  0
   -5.4440   24.3520   -8.3590 O   0  0  0  0  0  0  0  0  0  0  0  0
   -5.2510   23.8670  -11.6520 O   0  0  0  0  0  0  0  0  0  0  0  0
   -4.8590   24.9890  -12.4510 C   0  0  0  0  0  0  0  0  0  0  0  0
   -5.5720   24.9070  -13.8060 C   0  0  0  0  0  0  0  0  0  0  0  0
   -6.0720   26.1770  -14.2500 O   0  0  0  0  0  0  0  0  0  0  0  0
   -7.1390   26.6620  -13.5630 C   0  0  0  0  0  0  0  0  0  0  0  0
   -8.2350   26.9090  -14.0590 O   0  0  0  0  0  0  0  0  0  0  0  0
   -6.8330   26.8710  -12.0990 C   0  0  2  0  0  0  0  0  0  0  0  0
   -7.9250   26.5480  -11.0890 C   0  0  0  0  0  0  0  0  0  0  0  0
   -6.4710   28.3240  -11.7790 C   0  0  2  0  0  0  0  0  0  0  0  0
   -8.7830   27.8030  -11.1160 C   0  0  0  0  0  0  0  0  0  0  0  0
   -7.8410   28.9490  -11.5170 C   0  0  0  0  0  0  0  0  0  0  0  0
   -5.6790   29.0150  -12.8690 C   0  0  0  0  0  0  0  0  0  0  0  0
   -4.3050   29.0700  -12.9860 C   0  0  0  0  0  0  0  0  0  0  0  0
   -6.3000   29.7230  -13.9560 C   0  0  0  0  0  0  0  0  0  0  0  0
   -5.3900   30.2700  -14.8290 C   0  0  0  0  0  0  0  0  0  0  0  0
   -3.7840   29.9460  -14.3580 S   0  0  0  0  0  0  0  0  0  0  0  0
  2  1  1  1
  2  3  1  0
  2  4  1  0
  4  5  1  6
  3  6  1  0
  4  7  1  0
  6  7  1  0
  6  8  1  1
  7  9  1  6
  9 10  1  0
 10 11  1  0
 11 12  1  0
 12 13  1  0
 13 14  2  0
 15 13  1  6
 15 16  1  0
 15 17  1  0
 16 18  1  0
 17 19  1  0
 18 19  1  0
 17 20  1  6
 20 21  2  0
 20 22  1  0
 22 23  2  0
 21 24  1  0
 23 24  1  0
M  END
>  <%Rank>  (719) 
54.80916

>  <N_hits>  (719) 
2

>  <submitter_name>  (719) 
nan

>  <original SMILES>  (719) 
nan

>  <∆G_unbound>  (719) 
0.987337

>  <∆G_bound>  (719) 
-3.783834

>  <regarded>  (719) 
5CMS_0_N_α,mArh-x0766_1_B_α

>  <ref_pdb>  (719) 
nan

>  <smiles>  (719) 
CC1OC(O)C(OCCOC(=O)C2CCCC2c2ccsc2)C1O

>  <submitter_email>  (719) 
nan

>  <disregarded>  (719) 


>  <LE>  (719) 
-0.198799

>  <submitter_institution>  (719) 
nan

>  <ref_mols>  (719) 
5CMS_0_N,mArh-x0766_1_B

>  <N_constrained_atoms>  (719) 
22.0

>  <ref_url>  (719) 
nan

>  <method>  (719) 
nan

>  <comRMSD>  (719) 
0.825357

>  <N_unconstrained_atoms>  (719) 
2.0

>  <∆∆G>  (719) 
-4.77117

>  <runtime>  (719) 
39.663591

>  <generation_date>  (719) 
nan

$$$$
mArh-5mqx_0_A_α-mArh-6woj_A_0_A_β
     RDKit          3D

 21 21  0  0  0  0  0  0  0  0999 V2000
   -5.9840   20.6640   -7.3780 C   0  0  0  0  0  0  0  0  0  0  0  0
   -6.5000   19.3540   -8.0120 C   0  0  1  0  0  0  0  0  0  0  0  0
   -6.1140   18.1880   -7.3110 O   0  0  0  0  0  0  0  0  0  0  0  0
   -7.8170   19.0620   -8.7690 C   0  0  1  0  0  0  0  0  0  0  0  0
   -7.8110   19.5150  -10.1050 O   0  0  0  0  0  0  0  0  0  0  0  0
   -6.7470   17.0520   -7.9020 C   0  0  2  0  0  0  0  0  0  0  0  0
   -7.9690   17.5380   -8.7130 C   0  0  1  0  0  0  0  0  0  0  0  0
   -6.9820   16.1030   -6.8800 O   0  0  0  0  0  0  0  0  0  0  0  0
   -9.2490   17.1520   -8.2180 O   0  0  0  0  0  0  0  0  0  0  0  0
   -5.7450   15.4210   -6.6010 C   0  0  0  0  0  0  0  0  0  0  0  0
   -4.4820   16.2090   -7.0670 C   0  0  0  0  0  0  0  0  0  0  0  0
   -3.2440   16.2620   -6.1530 C   0  0  0  0  0  0  0  0  0  0  0  0
   -2.3910   17.3400   -6.6220 O   0  0  0  0  0  0  0  0  0  0  0  0
   -1.3590   18.0310   -5.5840 P   0  0  2  0  0  0  0  0  0  0  0  0
   -0.0570   18.5880   -6.3080 O   0  0  0  0  0  0  0  0  0  0  0  0
   -0.8150   16.7180   -4.8690 O   0  0  0  0  0  0  0  0  0  0  0  0
   -1.9760   19.0050   -4.6530 O   0  0  0  0  0  0  0  0  0  0  0  0
    0.1540   19.6710   -7.4290 P   0  0  0  0  0  0  0  0  0  0  0  0
   -1.1720   20.5380   -7.5200 O   0  0  0  0  0  0  0  0  0  0  0  0
    1.3130   20.6030   -7.4010 O   0  0  0  0  0  0  0  0  0  0  0  0
    0.1690   18.7240   -8.7250 O   0  0  0  0  0  0  0  0  0  0  0  0
  2  1  1  1
  2  3  1  0
  2  4  1  0
  4  5  1  6
  3  6  1  0
  4  7  1  0
  6  7  1  0
  6  8  1  1
  7  9  1  1
  8 10  1  0
 10 11  1  0
 11 12  1  0
 12 13  1  0
 13 14  1  0
 14 15  1  0
 14 16  1  1
 14 17  2  0
 15 18  1  0
 18 19  1  0
 18 20  2  0
 18 21  1  0
M  END
>  <%Rank>  (720) 
54.885496

>  <N_hits>  (720) 
2

>  <submitter_name>  (720) 
nan

>  <original SMILES>  (720) 
nan

>  <∆G_unbound>  (720) 
2.813689

>  <∆G_bound>  (720) 
-7.029405

>  <regarded>  (720) 
mArh-5mqx_0_A_α,mArh-6woj_A_0_A_β

>  <ref_pdb>  (720) 
nan

>  <smiles>  (720) 
CC1OC(OCCCOP(=O)(O)OP(=O)(O)O)C(O)C1O

>  <submitter_email>  (720) 
nan

>  <disregarded>  (720) 


>  <LE>  (720) 
-0.468719

>  <submitter_institution>  (720) 
nan

>  <ref_mols>  (720) 
mArh-5mqx_0_A,mArh-6woj_A_0_A

>  <N_constrained_atoms>  (720) 
18.0

>  <ref_url>  (720) 
nan

>  <method>  (720) 
nan

>  <comRMSD>  (720) 
0.847288

>  <N_unconstrained_atoms>  (720) 
3.0

>  <∆∆G>  (720) 
-9.843094

>  <runtime>  (720) 
30.496205

>  <generation_date>  (720) 
nan

$$$$
5CB5_0_P_α-mArh-x0742_0_A_α
     RDKit          3D

 30 33  0  0  0  0  0  0  0  0999 V2000
   -1.8880   21.2840   -8.7630 C   0  0  0  0  0  0  0  0  0  0  0  0
   -2.9090   21.8890   -7.8740 C   0  0  2  0  0  0  0  0  0  0  0  0
   -4.1260   21.2360   -8.0600 O   0  0  0  0  0  0  0  0  0  0  0  0
   -3.3990   23.3140   -7.9240 C   0  0  1  0  0  0  0  0  0  0  0  0
   -4.1340   23.7360   -9.0820 O   0  0  0  0  0  0  0  0  0  0  0  0
   -4.6780   21.5950   -6.8070 C   0  0  2  0  0  0  0  0  0  0  0  0
   -4.2840   23.1170   -6.6790 C   0  0  2  0  0  0  0  0  0  0  0  0
   -4.1630   20.6340   -5.7860 O   0  0  0  0  0  0  0  0  0  0  0  0
   -5.3880   24.0280   -6.6570 O   0  0  0  0  0  0  0  0  0  0  0  0
   -2.7680   20.1000   -5.6730 C   0  0  0  0  0  0  0  0  0  0  0  0
   -2.3910   18.7130   -6.4010 C   0  0  0  0  0  0  0  0  0  0  0  0
   -2.6890   17.1910   -5.9070 C   0  0  0  0  0  0  0  0  0  0  0  0
   -2.1570   16.6530   -4.5360 C   0  0  0  0  0  0  0  0  0  0  0  0
   -2.1440   15.1300   -4.0520 C   0  0  0  0  0  0  0  0  0  0  0  0
   -3.2320   14.5580   -3.0290 C   0  0  1  0  0  0  0  0  0  0  0  0
   -3.1320   13.7290   -1.6600 C   0  0  2  0  0  0  0  0  0  0  0  0
   -4.1110   15.6080   -2.4930 C   0  0  0  0  0  0  0  0  0  0  0  0
   -4.5970   13.8540   -1.0280 C   0  0  1  0  0  0  0  0  0  0  0  0
   -5.2930   14.8100   -2.0170 C   0  0  0  0  0  0  0  0  0  0  0  0
   -2.0470   14.0570   -0.6500 C   0  0  0  0  0  0  0  0  0  0  0  0
   -5.2680   12.4600   -0.9090 C   0  0  0  0  0  0  0  0  0  0  0  0
   -4.6780   14.4980    0.3800 C   0  0  0  0  0  0  0  0  0  0  0  0
   -0.7460   14.2670   -1.0800 C   0  0  0  0  0  0  0  0  0  0  0  0
   -2.2880   14.1510    0.7510 C   0  0  0  0  0  0  0  0  0  0  0  0
   -5.1080   11.6010   -1.7810 O   0  0  0  0  0  0  0  0  0  0  0  0
   -6.1290   12.1330    0.2920 C   0  0  0  0  0  0  0  0  0  0  0  0
   -1.3370   14.4190    1.6590 N   0  0  0  0  0  0  0  0  0  0  0  0
    0.2400   14.5510   -0.1570 C   0  0  0  0  0  0  0  0  0  0  0  0
   -3.6460   13.9520    1.3400 C   0  0  0  0  0  0  0  0  0  0  0  0
   -0.1060   14.6140    1.1800 C   0  0  0  0  0  0  0  0  0  0  0  0
  2  1  1  6
  2  3  1  0
  2  4  1  0
  4  5  1  6
  3  6  1  0
  4  7  1  0
  6  7  1  0
  6  8  1  1
  7  9  1  6
  8 10  1  0
 10 11  1  0
 11 12  1  0
 12 13  1  0
 13 14  1  0
 15 14  1  1
 15 16  1  0
 15 17  1  0
 16 18  1  0
 17 19  1  0
 18 19  1  0
 16 20  1  1
 18 21  1  1
 18 22  1  0
 20 23  1  0
 20 24  2  0
 21 25  2  0
 21 26  1  0
 24 27  1  0
 23 28  2  0
 22 29  1  0
 24 29  1  0
 27 30  2  0
 28 30  1  0
M  END
>  <%Rank>  (721) 
54.961832

>  <N_hits>  (721) 
2

>  <submitter_name>  (721) 
nan

>  <original SMILES>  (721) 
nan

>  <∆G_unbound>  (721) 
1.037095

>  <∆G_bound>  (721) 
-12.689583

>  <regarded>  (721) 
5CB5_0_P_α,mArh-x0742_0_A_α

>  <ref_pdb>  (721) 
nan

>  <smiles>  (721) 
CC(=O)C12CCc3ncccc3C1C(CCCCCOC1OC(C)C(O)C1O)CC2

>  <submitter_email>  (721) 
nan

>  <disregarded>  (721) 


>  <LE>  (721) 
-0.457556

>  <submitter_institution>  (721) 
nan

>  <ref_mols>  (721) 
5CB5_0_P,mArh-x0742_0_A

>  <N_constrained_atoms>  (721) 
20.0

>  <ref_url>  (721) 
nan

>  <method>  (721) 
nan

>  <comRMSD>  (721) 
0.714798

>  <N_unconstrained_atoms>  (721) 
10.0

>  <∆∆G>  (721) 
-13.726679

>  <runtime>  (721) 
36.335032

>  <generation_date>  (721) 
nan

$$$$
2FAV_0_B_β-mArh-4iqy_B_0_B_α
     RDKit          3D

 17 17  0  0  0  0  0  0  0  0999 V2000
   -1.7160   21.6920   -8.0610 O   0  0  0  0  0  0  0  0  0  0  0  0
   -0.5540   20.4100   -7.8880 P   0  0  0  0  0  0  0  0  0  0  0  0
   -0.5270   19.6660   -6.4100 O   0  0  0  0  0  0  0  0  0  0  0  0
   -3.0430   21.4660   -8.5140 C   0  0  1  0  0  0  0  0  0  0  0  0
    0.4190   21.4870   -7.4330 O   0  0  0  0  0  0  0  0  0  0  0  0
   -1.3430   19.2800   -8.4690 O   0  0  0  0  0  0  0  0  0  0  0  0
   -3.7920   20.6320   -7.6840 O   0  0  0  0  0  0  0  0  0  0  0  0
   -4.0060   22.7100   -8.5010 C   0  0  2  0  0  0  0  0  0  0  0  0
   -0.8910   18.2110   -5.9670 P   0  0  0  0  0  0  0  0  0  0  0  0
   -3.3990   23.8750   -8.8580 O   0  0  0  0  0  0  0  0  0  0  0  0
   -4.8150   21.3040   -7.0320 C   0  0  1  0  0  0  0  0  0  0  0  0
   -4.4250   22.7390   -7.0420 C   0  0  2  0  0  0  0  0  0  0  0  0
   -1.0170   16.7680   -5.4590 O   0  0  0  0  0  0  0  0  0  0  0  0
   -1.2350   18.7620   -4.4590 O   0  0  0  0  0  0  0  0  0  0  0  0
   -2.1980   18.0500   -6.9530 O   0  0  0  0  0  0  0  0  0  0  0  0
   -6.0740   21.1420   -7.5900 O   0  0  0  0  0  0  0  0  0  0  0  0
   -5.5080   23.6410   -6.9580 O   0  0  0  0  0  0  0  0  0  0  0  0
  1  2  1  0
  2  3  1  0
  4  1  1  1
  2  5  1  0
  2  6  1  0
  4  7  1  0
  4  8  1  0
  3  9  1  0
  8 10  1  1
  7 11  1  0
  8 12  1  0
 11 12  1  0
  9 13  1  0
  9 14  1  0
  9 15  1  0
 11 16  1  6
 12 17  1  6
M  CHG  2   5  -1  14  -1
M  END
>  <%Rank>  (722) 
55.038168

>  <N_hits>  (722) 
2

>  <submitter_name>  (722) 
nan

>  <original SMILES>  (722) 
nan

>  <∆G_unbound>  (722) 
0.972863

>  <∆G_bound>  (722) 
-5.693944

>  <regarded>  (722) 
2FAV_0_B_β,mArh-4iqy_B_0_B_α

>  <ref_pdb>  (722) 
nan

>  <smiles>  (722) 
[O-][PH](O)(O)O[PH]([O-])(O)OC1OC(O)C(O)C1O

>  <submitter_email>  (722) 
nan

>  <disregarded>  (722) 


>  <LE>  (722) 
-0.392165

>  <submitter_institution>  (722) 
nan

>  <ref_mols>  (722) 
2FAV_0_B,mArh-4iqy_B_0_B

>  <N_constrained_atoms>  (722) 
17.0

>  <ref_url>  (722) 
nan

>  <method>  (722) 
nan

>  <comRMSD>  (722) 
0.871736

>  <N_unconstrained_atoms>  (722) 
0.0

>  <∆∆G>  (722) 
-6.666808

>  <runtime>  (722) 
33.894297

>  <generation_date>  (722) 
nan

$$$$
mArh-x0895_1_A_α-mArh-EU0815_0_A_α
     RDKit          3D

 14 14  0  0  0  0  0  0  0  0999 V2000
   -2.0330   14.8500    1.7200 O   0  0  0  0  0  0  0  0  0  0  0  0
   -3.1720   14.9520    1.2510 C   0  0  0  0  0  0  0  0  0  0  0  0
   -3.5410   14.9170   -0.2130 C   0  0  0  0  0  0  0  0  0  0  0  0
   -4.3880   15.1160    1.9120 N   0  0  0  0  0  0  0  0  0  0  0  0
   -4.7890   14.2010   -0.0500 N   0  0  0  0  0  0  0  0  0  0  0  0
   -5.4080   14.6330    1.1150 C   0  0  0  0  0  0  0  0  0  0  0  0
   -6.7230   14.5960    1.3810 N   0  0  0  0  0  0  0  0  0  0  0  0
   -7.6180   15.0110    2.4260 C   0  0  0  0  0  0  0  0  0  0  0  0
   -7.4630   14.7480    3.7740 N   0  0  0  0  0  0  0  0  0  0  0  0
   -8.6300   15.6270    2.1130 O   0  0  0  0  0  0  0  0  0  0  0  0
   -8.6570   14.7550    4.6620 C   0  0  1  0  0  0  0  0  0  0  0  0
   -9.0100   13.3320    5.0920 C   0  0  0  0  0  0  0  0  0  0  0  0
   -8.5430   15.6690    5.9120 C   0  0  0  0  0  0  0  0  0  0  0  0
   -9.7720   15.6740    6.6710 O   0  0  0  0  0  0  0  0  0  0  0  0
  1  2  2  0
  2  3  1  0
  2  4  1  0
  3  5  1  0
  4  6  1  0
  5  6  1  0
  6  7  2  3
  7  8  1  0
  8  9  1  0
  8 10  2  0
  9 11  1  0
 11 12  1  1
 11 13  1  0
 13 14  1  0
M  END
>  <%Rank>  (723) 
55.114504

>  <N_hits>  (723) 
2

>  <submitter_name>  (723) 
nan

>  <original SMILES>  (723) 
nan

>  <∆G_unbound>  (723) 
1.701843

>  <∆G_bound>  (723) 
-3.987321

>  <regarded>  (723) 
mArh-x0895_1_A_α,mArh-EU0815_0_A_α

>  <ref_pdb>  (723) 
nan

>  <smiles>  (723) 
C[C@@H](CO)NC(=O)N=C1NCC(=O)N1

>  <submitter_email>  (723) 
nan

>  <disregarded>  (723) 


>  <LE>  (723) 
-0.406369

>  <submitter_institution>  (723) 
nan

>  <ref_mols>  (723) 
mArh-x0895_1_A,mArh-EU0815_0_A

>  <N_constrained_atoms>  (723) 
14.0

>  <ref_url>  (723) 
nan

>  <method>  (723) 
nan

>  <comRMSD>  (723) 
0.810675

>  <N_unconstrained_atoms>  (723) 
0.0

>  <∆∆G>  (723) 
-5.689164

>  <runtime>  (723) 
20.227297

>  <generation_date>  (723) 
nan

$$$$
mArh-x0685_0_A_α-5CB5_0_F_β
     RDKit          3D

 22 22  0  0  0  0  0  0  0  0999 V2000
   -5.9280   14.8710    2.6120 N   0  0  0  0  0  0  0  0  0  0  0  0
   -7.3510   14.7820    2.8380 C   0  0  0  0  0  0  0  0  0  0  0  0
   -7.7730   13.3390    3.0830 C   0  0  0  0  0  0  0  0  0  0  0  0
   -5.3240   14.9510    1.3260 C   0  0  0  0  0  0  0  0  0  0  0  0
   -3.9560   15.0280    1.1970 C   0  0  0  0  0  0  0  0  0  0  0  0
   -6.0470   14.9620    0.1950 N   0  0  0  0  0  0  0  0  0  0  0  0
   -3.3620   15.1190   -0.0340 C   0  0  0  0  0  0  0  0  0  0  0  0
   -5.4780   15.0540   -1.0140 C   0  0  0  0  0  0  0  0  0  0  0  0
   -4.1130   15.1400   -1.1970 C   0  0  0  0  0  0  0  0  0  0  0  0
   -3.5070   15.2500   -2.5010 C   0  0  0  0  0  0  0  0  0  0  0  0
   -2.9410   15.4020   -3.5680 C   0  0  0  0  0  0  0  0  0  0  0  0
   -2.1700   15.6360   -4.8080 C   0  0  0  0  0  0  0  0  0  0  0  0
   -3.0220   16.0650   -5.9950 C   0  0  0  0  0  0  0  0  0  0  0  0
   -2.5550   17.1570   -6.6990 O   0  0  0  0  0  0  0  0  0  0  0  0
   -1.6000   18.2660   -6.0320 P   0  0  0  0  0  0  0  0  0  0  0  0
   -0.3620   19.0770   -6.7560 O   0  0  0  0  0  0  0  0  0  0  0  0
   -1.7110   18.4080   -4.4150 O   0  0  0  0  0  0  0  0  0  0  0  0
   -2.5910   19.4110   -6.1280 O   0  0  0  0  0  0  0  0  0  0  0  0
   -0.3730   19.8800   -8.0460 P   0  0  0  0  0  0  0  0  0  0  0  0
   -1.9440   20.3630   -7.8940 O   0  0  0  0  0  0  0  0  0  0  0  0
    0.0240   18.5230   -8.8750 O   0  0  0  0  0  0  0  0  0  0  0  0
    0.7810   20.9150   -7.5960 O   0  0  0  0  0  0  0  0  0  0  0  0
  1  2  1  0
  2  3  1  0
  1  4  1  0
  4  5  2  0
  4  6  1  0
  5  7  1  0
  6  8  2  0
  7  9  2  0
  8  9  1  0
  9 10  1  0
 10 11  3  0
 11 12  1  0
 12 13  1  0
 13 14  1  0
 14 15  1  0
 15 16  1  0
 15 17  1  0
 15 18  1  0
 16 19  1  0
 19 20  1  0
 19 21  1  0
 19 22  1  0
M  CHG  2  17  -1  21  -1
M  END
>  <%Rank>  (724) 
55.19084

>  <N_hits>  (724) 
2

>  <submitter_name>  (724) 
nan

>  <original SMILES>  (724) 
nan

>  <∆G_unbound>  (724) 
0.573008

>  <∆G_bound>  (724) 
-10.70906

>  <regarded>  (724) 
mArh-x0685_0_A_α,5CB5_0_F_β

>  <ref_pdb>  (724) 
nan

>  <smiles>  (724) 
CCNc1ccc(C#CCCO[PH]([O-])(O)O[PH]([O-])(O)O)cn1

>  <submitter_email>  (724) 
nan

>  <disregarded>  (724) 


>  <LE>  (724) 
-0.512821

>  <submitter_institution>  (724) 
nan

>  <ref_mols>  (724) 
mArh-x0685_0_A,5CB5_0_F

>  <N_constrained_atoms>  (724) 
20.0

>  <ref_url>  (724) 
nan

>  <method>  (724) 
nan

>  <comRMSD>  (724) 
0.950748

>  <N_unconstrained_atoms>  (724) 
2.0

>  <∆∆G>  (724) 
-11.282068

>  <runtime>  (724) 
34.408931

>  <generation_date>  (724) 
nan

$$$$
5CB5_0_F_β-5CMS_0_P_α
     RDKit          3D

 17 17  0  0  0  0  0  0  0  0999 V2000
   -1.6920   21.3680   -8.6620 O   0  0  0  0  0  0  0  0  0  0  0  0
   -0.4890   20.2650   -8.1250 P   0  0  0  0  0  0  0  0  0  0  0  0
   -0.7130   19.6500   -6.6080 O   0  0  0  0  0  0  0  0  0  0  0  0
   -1.9750   21.6190  -10.0250 C   0  0  1  0  0  0  0  0  0  0  0  0
   -1.1010   19.0060   -8.6800 O   0  0  0  0  0  0  0  0  0  0  0  0
    0.2730   21.4750   -7.6030 O   0  0  0  0  0  0  0  0  0  0  0  0
   -3.2540   22.1340  -10.1720 O   0  0  0  0  0  0  0  0  0  0  0  0
   -1.0900   22.7250  -10.7020 C   0  0  2  0  0  0  0  0  0  0  0  0
   -1.3090   18.3240   -6.0360 P   0  0  0  0  0  0  0  0  0  0  0  0
    0.0560   22.9250   -9.9580 O   0  0  0  0  0  0  0  0  0  0  0  0
   -3.2620   23.2610  -10.9480 C   0  0  2  0  0  0  0  0  0  0  0  0
   -1.9620   23.9450  -10.6980 C   0  0  2  0  0  0  0  0  0  0  0  0
   -1.7010   16.9670   -5.4330 O   0  0  0  0  0  0  0  0  0  0  0  0
   -2.4800   18.2030   -7.1650 O   0  0  0  0  0  0  0  0  0  0  0  0
   -1.7490   19.1030   -4.6620 O   0  0  0  0  0  0  0  0  0  0  0  0
   -4.3290   24.1160  -10.7520 O   0  0  0  0  0  0  0  0  0  0  0  0
   -1.5740   24.7310  -11.8090 O   0  0  0  0  0  0  0  0  0  0  0  0
  1  2  1  0
  2  3  1  0
  4  1  1  1
  2  5  1  0
  2  6  1  0
  4  7  1  0
  4  8  1  0
  3  9  1  0
  8 10  1  1
  7 11  1  0
  8 12  1  0
 11 12  1  0
  9 13  1  0
  9 14  1  0
  9 15  1  0
 11 16  1  1
 12 17  1  6
M  CHG  2   5  -1  14  -1
M  END
>  <%Rank>  (725) 
55.267176

>  <N_hits>  (725) 
2

>  <submitter_name>  (725) 
nan

>  <original SMILES>  (725) 
nan

>  <∆G_unbound>  (725) 
0.972863

>  <∆G_bound>  (725) 
-4.586058

>  <regarded>  (725) 
5CB5_0_F_β,5CMS_0_P_α

>  <ref_pdb>  (725) 
nan

>  <smiles>  (725) 
[O-][PH](O)(O)O[PH]([O-])(O)OC1OC(O)C(O)C1O

>  <submitter_email>  (725) 
nan

>  <disregarded>  (725) 


>  <LE>  (725) 
-0.326995

>  <submitter_institution>  (725) 
nan

>  <ref_mols>  (725) 
5CB5_0_F,5CMS_0_P

>  <N_constrained_atoms>  (725) 
17.0

>  <ref_url>  (725) 
nan

>  <method>  (725) 
nan

>  <comRMSD>  (725) 
0.847255

>  <N_unconstrained_atoms>  (725) 
0.0

>  <∆∆G>  (725) 
-5.558922

>  <runtime>  (725) 
35.907528

>  <generation_date>  (725) 
nan

$$$$
3Q6Z_0_A_α-mArh-x0910_0_A_α
     RDKit          3D

 22 23  0  0  0  0  0  0  0  0999 V2000
   -2.0650   21.7350   -8.0620 C   0  0  0  0  0  0  0  0  0  0  0  0
   -3.3850   22.1900   -8.6680 C   0  0  2  0  0  0  0  0  0  0  0  0
   -3.9010   23.4880   -8.0980 C   0  0  1  0  0  0  0  0  0  0  0  0
   -4.4640   21.2750   -8.4440 O   0  0  0  0  0  0  0  0  0  0  0  0
   -4.8440   24.0760   -8.9770 O   0  0  0  0  0  0  0  0  0  0  0  0
   -4.5280   23.0140   -6.8010 C   0  0  2  0  0  0  0  0  0  0  0  0
   -5.1680   21.7050   -7.2740 C   0  0  2  0  0  0  0  0  0  0  0  0
   -5.4260   24.0090   -6.2910 O   0  0  0  0  0  0  0  0  0  0  0  0
   -4.9120   20.7280   -6.3170 O   0  0  0  0  0  0  0  0  0  0  0  0
   -3.7150   20.0720   -6.7710 C   0  0  0  0  0  0  0  0  0  0  0  0
   -2.5350   20.1160   -5.8030 C   0  0  0  0  0  0  0  0  0  0  0  0
   -1.4940   19.0250   -6.1120 C   0  0  0  0  0  0  0  0  0  0  0  0
   -1.0260   18.2070   -4.9040 C   0  0  0  0  0  0  0  0  0  0  0  0
   -1.7500   16.8600   -4.8010 C   0  0  0  0  0  0  0  0  0  0  0  0
   -1.4620   16.0630   -3.5120 C   0  0  0  0  0  0  0  0  0  0  0  0
   -2.7110   15.7140   -2.6870 C   0  0  0  0  0  0  0  0  0  0  0  0
   -2.4760   14.5780   -1.8170 N   0  0  0  0  0  0  0  0  0  0  0  0
   -1.6880   14.7650   -0.7420 C   0  0  0  0  0  0  0  0  0  0  0  0
   -2.1930   14.7580    0.5340 N   0  0  0  0  0  0  0  0  0  0  0  0
   -0.3990   14.9700   -0.6890 N   0  0  0  0  0  0  0  0  0  0  0  0
   -1.2230   14.9590    1.4350 N   0  0  0  0  0  0  0  0  0  0  0  0
   -0.1560   15.0860    0.6510 C   0  0  0  0  0  0  0  0  0  0  0  0
  2  1  1  1
  2  3  1  0
  2  4  1  0
  3  5  1  6
  3  6  1  0
  4  7  1  0
  6  7  1  0
  6  8  1  6
  7  9  1  1
  9 10  1  0
 10 11  1  0
 11 12  1  0
 12 13  1  0
 13 14  1  0
 14 15  1  0
 15 16  1  0
 16 17  1  0
 17 18  1  0
 18 19  1  0
 18 20  2  0
 19 21  1  0
 20 22  1  0
 21 22  2  0
M  END
>  <%Rank>  (726) 
55.343511

>  <N_hits>  (726) 
2

>  <submitter_name>  (726) 
nan

>  <original SMILES>  (726) 
nan

>  <∆G_unbound>  (726) 
1.393771

>  <∆G_bound>  (726) 
-11.974475

>  <regarded>  (726) 
3Q6Z_0_A_α,mArh-x0910_0_A_α

>  <ref_pdb>  (726) 
nan

>  <smiles>  (726) 
CC1OC(OCCCCCCCNc2ncn[nH]2)C(O)C1O

>  <submitter_email>  (726) 
nan

>  <disregarded>  (726) 


>  <LE>  (726) 
-0.607648

>  <submitter_institution>  (726) 
nan

>  <ref_mols>  (726) 
3Q6Z_0_A,mArh-x0910_0_A

>  <N_constrained_atoms>  (726) 
15.0

>  <ref_url>  (726) 
nan

>  <method>  (726) 
nan

>  <comRMSD>  (726) 
0.708106

>  <N_unconstrained_atoms>  (726) 
7.0

>  <∆∆G>  (726) 
-13.368246

>  <runtime>  (726) 
30.904305

>  <generation_date>  (726) 
nan

$$$$
5CMS_0_C_δ-5L9K_0_A_β
     RDKit          3D

 21 22  0  0  0  0  0  0  0  0999 V2000
   -3.8420   15.4880    1.6340 N   0  0  0  0  0  0  0  0  0  0  0  0
   -2.7180   14.8090    0.9800 C   0  0  1  0  0  0  0  0  0  0  0  0
   -2.5870   15.3720   -0.3770 C   0  0  1  0  0  0  0  0  0  0  0  0
   -1.5210   15.1880    1.6530 N   0  0  0  0  0  0  0  0  0  0  0  0
   -1.2410   15.0890   -0.9550 C   0  0  2  0  0  0  0  0  0  0  0  0
   -3.5150   14.8630   -1.3240 N   0  0  0  0  0  0  0  0  0  0  0  0
   -0.3070   14.6210    1.1650 C   0  0  0  0  0  0  0  0  0  0  0  0
   -1.4100   14.6070   -2.2500 N   0  0  0  0  0  0  0  0  0  0  0  0
   -2.8160   14.6030   -2.5860 C   0  0  2  0  0  0  0  0  0  0  0  0
   -0.5980   14.0490   -0.1390 N   0  0  0  0  0  0  0  0  0  0  0  0
   -3.1790   15.6200   -3.6250 C   0  0  0  0  0  0  0  0  0  0  0  0
   -2.0250   16.3500   -4.2660 C   0  0  0  0  0  0  0  0  0  0  0  0
   -2.2210   17.7120   -4.3500 O   0  0  0  0  0  0  0  0  0  0  0  0
   -1.9460   18.2330   -5.9110 P   0  0  0  0  0  0  0  0  0  0  0  0
   -1.3620   19.6190   -6.2870 O   0  0  0  0  0  0  0  0  0  0  0  0
   -0.8070   17.3390   -6.1030 O   0  0  0  0  0  0  0  0  0  0  0  0
   -2.9400   17.3400   -6.9720 O   0  0  0  0  0  0  0  0  0  0  0  0
   -0.9730   20.2390   -7.7010 P   0  0  0  0  0  0  0  0  0  0  0  0
   -2.0270   20.8340   -8.7760 O   0  0  0  0  0  0  0  0  0  0  0  0
   -0.7270   18.9080   -8.4210 O   0  0  0  0  0  0  0  0  0  0  0  0
    0.6490   20.5540   -7.9350 O   0  0  0  0  0  0  0  0  0  0  0  0
  2  1  1  1
  2  3  1  0
  2  4  1  0
  3  5  1  0
  3  6  1  6
  4  7  1  0
  5  8  1  6
  6  9  1  0
  8  9  1  0
  5 10  1  0
  7 10  1  0
  9 11  1  6
 11 12  1  0
 12 13  1  0
 13 14  1  0
 14 15  1  0
 14 16  1  0
 14 17  1  0
 15 18  1  0
 18 19  1  0
 18 20  1  0
 18 21  1  0
M  CHG  1  20  -1
M  END
>  <%Rank>  (727) 
55.419847

>  <N_hits>  (727) 
2

>  <submitter_name>  (727) 
nan

>  <original SMILES>  (727) 
nan

>  <∆G_unbound>  (727) 
1.532713

>  <∆G_bound>  (727) 
-6.20536

>  <regarded>  (727) 
5CMS_0_C_δ,5L9K_0_A_β

>  <ref_pdb>  (727) 
nan

>  <smiles>  (727) 
NC1NCNC2NC(CCO[PH](O)(O)O[PH]([O-])(O)O)NC12

>  <submitter_email>  (727) 
nan

>  <disregarded>  (727) 


>  <LE>  (727) 
-0.36848

>  <submitter_institution>  (727) 
nan

>  <ref_mols>  (727) 
5CMS_0_C,5L9K_0_A

>  <N_constrained_atoms>  (727) 
19.0

>  <ref_url>  (727) 
nan

>  <method>  (727) 
nan

>  <comRMSD>  (727) 
0.85732

>  <N_unconstrained_atoms>  (727) 
2.0

>  <∆∆G>  (727) 
-7.738073

>  <runtime>  (727) 
25.938531

>  <generation_date>  (727) 
nan

$$$$
mArh-5lw0_A_0_A_β-4IQY_0_B_α
     RDKit          3D

 19 19  0  0  0  0  0  0  0  0999 V2000
   -1.9360   18.9990   -7.7720 O   0  0  0  0  0  0  0  0  0  0  0  0
   -0.3830   18.9930   -7.6780 P   0  0  1  0  0  0  0  0  0  0  0  0
   -0.2240   18.1390   -6.3810 O   0  0  0  0  0  0  0  0  0  0  0  0
    0.1970   18.3820   -8.8850 O   0  0  0  0  0  0  0  0  0  0  0  0
   -0.0040   20.5010   -7.4300 O   0  0  0  0  0  0  0  0  0  0  0  0
   -1.4900   17.4560   -5.7250 P   0  0  0  0  0  0  0  0  0  0  0  0
   -0.8210   21.4720   -8.0540 C   0  0  0  0  0  0  0  0  0  0  0  0
   -0.9550   16.1600   -4.9750 O   0  0  0  0  0  0  0  0  0  0  0  0
   -2.6270   17.1740   -6.6390 O   0  0  0  0  0  0  0  0  0  0  0  0
   -1.8980   18.4630   -4.5860 O   0  0  0  0  0  0  0  0  0  0  0  0
   -2.2180   21.5230   -7.4820 C   0  0  0  0  0  0  0  0  0  0  0  0
   -3.3010   21.8860   -8.4860 C   0  0  1  0  0  0  0  0  0  0  0  0
   -4.4120   21.0050   -8.2600 O   0  0  0  0  0  0  0  0  0  0  0  0
   -3.8730   23.2820   -8.2840 C   0  0  1  0  0  0  0  0  0  0  0  0
   -4.7250   23.7320   -9.3540 O   0  0  0  0  0  0  0  0  0  0  0  0
   -5.1380   21.5680   -7.1850 C   0  0  1  0  0  0  0  0  0  0  0  0
   -4.6760   23.0310   -7.0100 C   0  0  2  0  0  0  0  0  0  0  0  0
   -6.5040   21.4980   -7.5160 O   0  0  0  0  0  0  0  0  0  0  0  0
   -5.7460   23.9590   -6.8550 O   0  0  0  0  0  0  0  0  0  0  0  0
  2  1  1  6
  2  3  1  0
  2  4  2  0
  2  5  1  0
  3  6  1  0
  5  7  1  0
  6  8  1  0
  6  9  2  0
  6 10  1  0
  7 11  1  0
 12 11  1  1
 12 13  1  0
 12 14  1  0
 14 15  1  6
 13 16  1  0
 14 17  1  0
 16 17  1  0
 16 18  1  6
 17 19  1  6
M  END
>  <%Rank>  (728) 
55.496183

>  <N_hits>  (728) 
2

>  <submitter_name>  (728) 
nan

>  <original SMILES>  (728) 
nan

>  <∆G_unbound>  (728) 
0.617883

>  <∆G_bound>  (728) 
-10.966924

>  <regarded>  (728) 
mArh-5lw0_A_0_A_β,4IQY_0_B_α

>  <ref_pdb>  (728) 
nan

>  <smiles>  (728) 
O=P(O)(O)OP(=O)(O)OCCC1OC(O)C(O)C1O

>  <submitter_email>  (728) 
nan

>  <disregarded>  (728) 


>  <LE>  (728) 
-0.609727

>  <submitter_institution>  (728) 
nan

>  <ref_mols>  (728) 
mArh-5lw0_A_0_A,4IQY_0_B

>  <N_constrained_atoms>  (728) 
18.0

>  <ref_url>  (728) 
nan

>  <method>  (728) 
nan

>  <comRMSD>  (728) 
0.984026

>  <N_unconstrained_atoms>  (728) 
1.0

>  <∆∆G>  (728) 
-11.584807

>  <runtime>  (728) 
36.043361

>  <generation_date>  (728) 
nan

$$$$
MAC-120_0_A_α-5CB5_0_Q_δ
     RDKit          3D

 17 19  0  0  0  0  0  0  0  0999 V2000
   -7.5520   15.1840   -1.3730 C   0  0  0  0  0  0  0  0  0  0  0  0
   -6.1630   14.6580   -1.2490 C   0  0  0  0  0  0  0  0  0  0  0  0
   -5.5220   14.0790   -2.3390 C   0  0  0  0  0  0  0  0  0  0  0  0
   -5.4800   14.7360   -0.0430 C   0  0  0  0  0  0  0  0  0  0  0  0
   -4.1950   14.2450    0.0360 C   0  0  0  0  0  0  0  0  0  0  0  0
   -4.2400   13.6070   -2.1690 C   0  0  0  0  0  0  0  0  0  0  0  0
   -3.5320   14.3610    1.2150 N   0  0  0  0  0  0  0  0  0  0  0  0
   -3.5760   13.6830   -1.0100 N   0  0  0  0  0  0  0  0  0  0  0  0
   -2.4170   15.2420    1.0130 C   0  0  2  0  0  0  0  0  0  0  0  0
   -2.2950   15.6840   -0.4570 C   0  0  1  0  0  0  0  0  0  0  0  0
   -1.1690   14.9330    1.6650 N   0  0  0  0  0  0  0  0  0  0  0  0
   -1.2730   14.7860   -1.0600 C   0  0  1  0  0  0  0  0  0  0  0  0
   -3.3700   15.5900   -1.4540 N   0  0  0  0  0  0  0  0  0  0  0  0
    0.0410   14.7290    0.8830 C   0  0  0  0  0  0  0  0  0  0  0  0
   -1.2980   15.1100   -2.4690 N   0  0  0  0  0  0  0  0  0  0  0  0
   -2.6680   15.5540   -2.7270 C   0  0  0  0  0  0  0  0  0  0  0  0
    0.0140   15.0640   -0.5270 N   0  0  0  0  0  0  0  0  0  0  0  0
  1  2  1  0
  2  3  2  0
  2  4  1  0
  4  5  2  0
  3  6  1  0
  5  7  1  0
  5  8  1  0
  6  8  2  0
  9  7  1  6
  9 10  1  0
  9 11  1  0
 10 12  1  0
 10 13  1  6
 11 14  1  0
 12 15  1  6
 13 16  1  0
 15 16  1  0
 12 17  1  0
 14 17  1  0
M  END
>  <%Rank>  (729) 
55.572519

>  <N_hits>  (729) 
2

>  <submitter_name>  (729) 
nan

>  <original SMILES>  (729) 
nan

>  <∆G_unbound>  (729) 
1.81555

>  <∆G_bound>  (729) 
1.643346

>  <regarded>  (729) 
MAC-120_0_A_α,5CB5_0_Q_δ

>  <ref_pdb>  (729) 
nan

>  <smiles>  (729) 
Cc1ccnc(NC2NCNC3NCNC32)c1

>  <submitter_email>  (729) 
nan

>  <disregarded>  (729) 


>  <LE>  (729) 
-0.01013

>  <submitter_institution>  (729) 
nan

>  <ref_mols>  (729) 
MAC-120_0_A,5CB5_0_Q

>  <N_constrained_atoms>  (729) 
17.0

>  <ref_url>  (729) 
nan

>  <method>  (729) 
nan

>  <comRMSD>  (729) 
0.692524

>  <N_unconstrained_atoms>  (729) 
0.0

>  <∆∆G>  (729) 
-0.172205

>  <runtime>  (729) 
25.454397

>  <generation_date>  (729) 
nan

$$$$
5L9K_0_A_β-5DUS_0_A_γ
     RDKit          3D

 18 18  0  0  0  0  0  0  0  0999 V2000
   -1.7410   20.8620   -8.6010 O   0  0  0  0  0  0  0  0  0  0  0  0
   -0.6880   19.7350   -7.9590 P   0  0  0  0  0  0  0  0  0  0  0  0
   -0.6670   19.4410   -6.3940 O   0  0  0  0  0  0  0  0  0  0  0  0
    0.0760   18.6800   -8.9400 O   0  0  0  0  0  0  0  0  0  0  0  0
    0.4610   20.7060   -7.9160 O   0  0  0  0  0  0  0  0  0  0  0  0
   -2.0930   18.8450   -5.9950 P   0  0  0  0  0  0  0  0  0  0  0  0
   -1.7490   17.4280   -6.4160 O   0  0  0  0  0  0  0  0  0  0  0  0
   -2.2230   18.1050   -4.4940 O   0  0  0  0  0  0  0  0  0  0  0  0
   -3.3510   18.9910   -6.9290 O   0  0  0  0  0  0  0  0  0  0  0  0
   -1.4300   16.6050   -5.3360 C   0  0  0  0  0  0  0  0  0  0  0  0
    0.0130   16.7290   -5.0130 C   0  0  0  0  0  0  0  0  0  0  0  0
    0.6220   15.4800   -4.4610 C   0  0  1  0  0  0  0  0  0  0  0  0
    0.3820   15.4270   -3.0740 O   0  0  0  0  0  0  0  0  0  0  0  0
   -0.0030   14.2360   -4.9870 C   0  0  1  0  0  0  0  0  0  0  0  0
    0.8560   13.1610   -4.7830 O   0  0  0  0  0  0  0  0  0  0  0  0
   -0.6060   14.5050   -2.7980 C   0  0  0  0  0  0  0  0  0  0  0  0
   -1.2100   14.1040   -4.1030 C   0  0  2  0  0  0  0  0  0  0  0  0
   -1.6290   12.7640   -4.1360 O   0  0  0  0  0  0  0  0  0  0  0  0
  1  2  1  0
  2  3  1  0
  2  4  1  0
  2  5  1  0
  3  6  1  0
  6  7  1  0
  6  8  1  0
  6  9  1  0
  7 10  1  0
 10 11  1  0
 12 11  1  6
 12 13  1  0
 12 14  1  0
 14 15  1  1
 13 16  1  0
 14 17  1  0
 16 17  1  0
 17 18  1  1
M  CHG  2   4  -1   8  -1
M  END
>  <%Rank>  (730) 
55.648855

>  <N_hits>  (730) 
2

>  <submitter_name>  (730) 
nan

>  <original SMILES>  (730) 
nan

>  <∆G_unbound>  (730) 
0.600635

>  <∆G_bound>  (730) 
-5.596939

>  <regarded>  (730) 
5L9K_0_A_β,5DUS_0_A_γ

>  <ref_pdb>  (730) 
nan

>  <smiles>  (730) 
[O-][PH](O)(O)O[PH]([O-])(O)OCCC1OCC(O)C1O

>  <submitter_email>  (730) 
nan

>  <disregarded>  (730) 


>  <LE>  (730) 
-0.34431

>  <submitter_institution>  (730) 
nan

>  <ref_mols>  (730) 
5L9K_0_A,5DUS_0_A

>  <N_constrained_atoms>  (730) 
17.0

>  <ref_url>  (730) 
nan

>  <method>  (730) 
nan

>  <comRMSD>  (730) 
0.831655

>  <N_unconstrained_atoms>  (730) 
1.0

>  <∆∆G>  (730) 
-6.197574

>  <runtime>  (730) 
31.063964

>  <generation_date>  (730) 
nan

$$$$
5CB5_0_O_β-5CMS_0_E_β
     RDKit          3D

  9  8  0  0  0  0  0  0  0  0999 V2000
   -1.7230   20.7040   -8.2010 O   0  0  0  0  0  0  0  0  0  0  0  0
   -0.2560   20.0280   -8.1030 P   0  0  0  0  0  0  0  0  0  0  0  0
   -0.3420   19.2430   -6.8210 O   0  0  0  0  0  0  0  0  0  0  0  0
    1.0490   20.8980   -7.5690 O   0  0  0  0  0  0  0  0  0  0  0  0
    0.0030   18.5770   -8.8970 O   0  0  0  0  0  0  0  0  0  0  0  0
   -1.6850   18.5960   -6.1640 P   0  0  0  0  0  0  0  0  0  0  0  0
   -0.8870   17.5370   -5.4110 O   0  0  0  0  0  0  0  0  0  0  0  0
   -2.5650   17.4340   -6.8960 O   0  0  0  0  0  0  0  0  0  0  0  0
   -2.2950   19.3520   -4.8310 O   0  0  0  0  0  0  0  0  0  0  0  0
  1  2  1  0
  2  3  1  0
  2  4  1  0
  2  5  1  0
  3  6  1  0
  6  7  1  0
  6  8  1  0
  6  9  1  0
M  CHG  2   4  -1   8  -1
M  END
>  <%Rank>  (731) 
55.725191

>  <N_hits>  (731) 
2

>  <submitter_name>  (731) 
nan

>  <original SMILES>  (731) 
nan

>  <∆G_unbound>  (731) 
0.654534

>  <∆G_bound>  (731) 
-5.760246

>  <regarded>  (731) 
5CB5_0_O_β,5CMS_0_E_β

>  <ref_pdb>  (731) 
nan

>  <smiles>  (731) 
[O-][PH](O)(O)O[PH]([O-])(O)O

>  <submitter_email>  (731) 
nan

>  <disregarded>  (731) 


>  <LE>  (731) 
-0.712753

>  <submitter_institution>  (731) 
nan

>  <ref_mols>  (731) 
5CB5_0_O,5CMS_0_E

>  <N_constrained_atoms>  (731) 
9.0

>  <ref_url>  (731) 
nan

>  <method>  (731) 
nan

>  <comRMSD>  (731) 
0.821822

>  <N_unconstrained_atoms>  (731) 
0.0

>  <∆∆G>  (731) 
-6.41478

>  <runtime>  (731) 
27.687688

>  <generation_date>  (731) 
nan

$$$$
5CMS_0_C_β-5CB3_0_A_α
     RDKit          3D

 17 17  0  0  0  0  0  0  0  0999 V2000
   -1.8940   21.2050   -8.8860 O   0  0  0  0  0  0  0  0  0  0  0  0
   -0.8860   20.2270   -7.8990 P   0  0  0  0  0  0  0  0  0  0  0  0
   -1.5410   19.5740   -6.5580 O   0  0  0  0  0  0  0  0  0  0  0  0
   -3.2370   21.5840   -8.5270 C   0  0  1  0  0  0  0  0  0  0  0  0
   -0.5400   21.4990   -7.1620 O   0  0  0  0  0  0  0  0  0  0  0  0
   -1.0730   18.9340   -8.6710 O   0  0  0  0  0  0  0  0  0  0  0  0
   -3.6950   21.0780   -7.3500 O   0  0  0  0  0  0  0  0  0  0  0  0
   -3.4500   23.1410   -8.3130 C   0  0  1  0  0  0  0  0  0  0  0  0
   -1.4280   18.1320   -6.0240 P   0  0  0  0  0  0  0  0  0  0  0  0
   -4.2740   23.6190   -9.3380 O   0  0  0  0  0  0  0  0  0  0  0  0
   -4.7870   21.8140   -6.9910 C   0  0  2  0  0  0  0  0  0  0  0  0
   -4.2570   23.1930   -6.9850 C   0  0  2  0  0  0  0  0  0  0  0  0
   -1.1970   16.7020   -5.5200 O   0  0  0  0  0  0  0  0  0  0  0  0
   -2.7160   17.6720   -6.9110 O   0  0  0  0  0  0  0  0  0  0  0  0
   -1.7050   18.6960   -4.5180 O   0  0  0  0  0  0  0  0  0  0  0  0
   -5.4070   21.5050   -5.7910 O   0  0  0  0  0  0  0  0  0  0  0  0
   -5.3120   24.1200   -7.0710 O   0  0  0  0  0  0  0  0  0  0  0  0
  1  2  1  0
  2  3  1  0
  4  1  1  1
  2  5  1  0
  2  6  1  0
  4  7  1  0
  4  8  1  0
  3  9  1  0
  8 10  1  6
  7 11  1  0
  8 12  1  0
 11 12  1  0
  9 13  1  0
  9 14  1  0
  9 15  1  0
 11 16  1  1
 12 17  1  6
M  CHG  2   5  -1  14  -1
M  END
>  <%Rank>  (732) 
55.801527

>  <N_hits>  (732) 
2

>  <submitter_name>  (732) 
nan

>  <original SMILES>  (732) 
nan

>  <∆G_unbound>  (732) 
0.972863

>  <∆G_bound>  (732) 
-7.109013

>  <regarded>  (732) 
5CMS_0_C_β,5CB3_0_A_α

>  <ref_pdb>  (732) 
nan

>  <smiles>  (732) 
[O-][PH](O)(O)O[PH]([O-])(O)OC1OC(O)C(O)C1O

>  <submitter_email>  (732) 
nan

>  <disregarded>  (732) 


>  <LE>  (732) 
-0.475404

>  <submitter_institution>  (732) 
nan

>  <ref_mols>  (732) 
5CMS_0_C,5CB3_0_A

>  <N_constrained_atoms>  (732) 
17.0

>  <ref_url>  (732) 
nan

>  <method>  (732) 
nan

>  <comRMSD>  (732) 
0.927379

>  <N_unconstrained_atoms>  (732) 
0.0

>  <∆∆G>  (732) 
-8.081876

>  <runtime>  (732) 
35.402218

>  <generation_date>  (732) 
nan

$$$$
5CB5_0_B_β-5CMS_0_H_α
     RDKit          3D

 17 17  0  0  0  0  0  0  0  0999 V2000
   -1.7050   21.3860   -8.6780 O   0  0  0  0  0  0  0  0  0  0  0  0
   -0.5310   20.2940   -8.0730 P   0  0  0  0  0  0  0  0  0  0  0  0
   -0.8430   19.7230   -6.5610 O   0  0  0  0  0  0  0  0  0  0  0  0
   -1.7600   21.6910  -10.0530 C   0  0  1  0  0  0  0  0  0  0  0  0
    0.1850   21.5020   -7.4970 O   0  0  0  0  0  0  0  0  0  0  0  0
   -1.1060   19.0300   -8.6720 O   0  0  0  0  0  0  0  0  0  0  0  0
   -2.9810   22.1870  -10.4370 O   0  0  0  0  0  0  0  0  0  0  0  0
   -0.8220   22.8380  -10.5280 C   0  0  2  0  0  0  0  0  0  0  0  0
   -1.3590   18.3340   -6.1000 P   0  0  0  0  0  0  0  0  0  0  0  0
    0.3440   22.8360   -9.7920 O   0  0  0  0  0  0  0  0  0  0  0  0
   -3.0280   23.5440  -10.2850 C   0  0  1  0  0  0  0  0  0  0  0  0
   -1.6220   24.0880  -10.2790 C   0  0  2  0  0  0  0  0  0  0  0  0
   -1.7030   16.8980   -5.6750 O   0  0  0  0  0  0  0  0  0  0  0  0
   -2.5910   18.3380   -7.1680 O   0  0  0  0  0  0  0  0  0  0  0  0
   -1.6890   18.9120   -4.6020 O   0  0  0  0  0  0  0  0  0  0  0  0
   -3.8390   24.2000  -11.1880 O   0  0  0  0  0  0  0  0  0  0  0  0
   -1.3500   24.9100  -11.3950 O   0  0  0  0  0  0  0  0  0  0  0  0
  1  2  1  0
  2  3  1  0
  4  1  1  1
  2  5  1  0
  2  6  1  0
  4  7  1  0
  4  8  1  0
  3  9  1  0
  8 10  1  1
  7 11  1  0
  8 12  1  0
 11 12  1  0
  9 13  1  0
  9 14  1  0
  9 15  1  0
 11 16  1  6
 12 17  1  6
M  CHG  2   5  -1  14  -1
M  END
>  <%Rank>  (733) 
55.877863

>  <N_hits>  (733) 
2

>  <submitter_name>  (733) 
nan

>  <original SMILES>  (733) 
nan

>  <∆G_unbound>  (733) 
0.972863

>  <∆G_bound>  (733) 
-4.075503

>  <regarded>  (733) 
5CB5_0_B_β,5CMS_0_H_α

>  <ref_pdb>  (733) 
nan

>  <smiles>  (733) 
[O-][PH](O)(O)O[PH]([O-])(O)OC1OC(O)C(O)C1O

>  <submitter_email>  (733) 
nan

>  <disregarded>  (733) 


>  <LE>  (733) 
-0.296963

>  <submitter_institution>  (733) 
nan

>  <ref_mols>  (733) 
5CB5_0_B,5CMS_0_H

>  <N_constrained_atoms>  (733) 
17.0

>  <ref_url>  (733) 
nan

>  <method>  (733) 
nan

>  <comRMSD>  (733) 
0.838479

>  <N_unconstrained_atoms>  (733) 
0.0

>  <∆∆G>  (733) 
-5.048366

>  <runtime>  (733) 
36.78496

>  <generation_date>  (733) 
nan

$$$$
5CB5_0_K_β-MAC-194_0_A_α
     RDKit          3D

 24 25  0  0  0  0  0  0  0  0999 V2000
   -1.6820   20.8020   -8.3310 O   0  0  0  0  0  0  0  0  0  0  0  0
   -0.5930   19.6310   -7.7860 P   0  0  0  0  0  0  0  0  0  0  0  0
   -0.6170   19.1980   -6.2410 O   0  0  0  0  0  0  0  0  0  0  0  0
    0.2630   18.8190   -8.8470 O   0  0  0  0  0  0  0  0  0  0  0  0
    0.5060   20.6410   -7.7130 O   0  0  0  0  0  0  0  0  0  0  0  0
   -1.8510   18.2910   -5.8210 P   0  0  0  0  0  0  0  0  0  0  0  0
   -1.7330   16.6460   -5.8580 O   0  0  0  0  0  0  0  0  0  0  0  0
   -2.4640   18.2920   -7.2000 O   0  0  0  0  0  0  0  0  0  0  0  0
   -1.5270   18.1600   -4.3190 O   0  0  0  0  0  0  0  0  0  0  0  0
   -0.7040   17.0920   -3.9480 C   0  0  0  0  0  0  0  0  0  0  0  0
   -1.2580   16.0450   -3.0570 C   0  0  0  0  0  0  0  0  0  0  0  0
   -2.5960   15.4320   -3.3480 C   0  0  0  0  0  0  0  0  0  0  0  0
   -3.3300   15.2010   -2.0510 C   0  0  0  0  0  0  0  0  0  0  0  0
   -2.6670   15.0820   -0.8340 C   0  0  0  0  0  0  0  0  0  0  0  0
   -4.7170   15.0980   -2.0010 C   0  0  0  0  0  0  0  0  0  0  0  0
   -5.4110   14.9000   -0.8200 C   0  0  0  0  0  0  0  0  0  0  0  0
   -3.3580   14.8840    0.3490 C   0  0  0  0  0  0  0  0  0  0  0  0
   -6.8000   14.8010   -0.7600 C   0  0  0  0  0  0  0  0  0  0  0  0
   -4.7340   14.7950    0.3740 C   0  0  0  0  0  0  0  0  0  0  0  0
   -7.4310   14.8400   -1.8540 O   0  0  0  0  0  0  0  0  0  0  0  0
   -7.4360   14.6650    0.4250 N   0  0  0  0  0  0  0  0  0  0  0  0
   -5.4260   14.6170    1.5230 N   0  0  0  0  0  0  0  0  0  0  0  0
   -6.7720   14.5600    1.5880 C   0  0  0  0  0  0  0  0  0  0  0  0
   -7.4600   14.3980    2.8360 N   0  0  0  0  0  0  0  0  0  0  0  0
  1  2  1  0
  2  3  1  0
  2  4  1  0
  2  5  1  0
  3  6  1  0
  6  7  1  0
  6  8  1  0
  6  9  1  0
  9 10  1  0
 10 11  1  0
 11 12  1  0
 12 13  1  0
 13 14  2  0
 13 15  1  0
 15 16  2  0
 14 17  1  0
 16 18  1  0
 16 19  1  0
 17 19  2  0
 18 20  2  0
 18 21  1  0
 19 22  1  0
 21 23  1  0
 22 23  2  0
 23 24  1  0
M  CHG  2   4  -1   8  -1
M  END
>  <%Rank>  (734) 
55.954198

>  <N_hits>  (734) 
2

>  <submitter_name>  (734) 
nan

>  <original SMILES>  (734) 
nan

>  <∆G_unbound>  (734) 
0.852118

>  <∆G_bound>  (734) 
-10.509273

>  <regarded>  (734) 
5CB5_0_K_β,MAC-194_0_A_α

>  <ref_pdb>  (734) 
nan

>  <smiles>  (734) 
Nc1nc2ccc(CCCO[PH]([O-])(O)O[PH]([O-])(O)O)cc2c(=O)[nH]1

>  <submitter_email>  (734) 
nan

>  <disregarded>  (734) 


>  <LE>  (734) 
-0.473391

>  <submitter_institution>  (734) 
nan

>  <ref_mols>  (734) 
5CB5_0_K,MAC-194_0_A

>  <N_constrained_atoms>  (734) 
21.0

>  <ref_url>  (734) 
nan

>  <method>  (734) 
nan

>  <comRMSD>  (734) 
0.934603

>  <N_unconstrained_atoms>  (734) 
3.0

>  <∆∆G>  (734) 
-11.361391

>  <runtime>  (734) 
50.921626

>  <generation_date>  (734) 
nan

$$$$
mArh-6fx_7_0A_α-5CMS_0_K_β
     RDKit          3D

 20 20  0  0  0  0  0  0  0  0999 V2000
   -2.1850   23.0200   -7.7820 C   0  0  0  0  0  0  0  0  0  0  0  0
   -3.1040   22.4800   -8.8460 C   0  0  2  0  0  0  0  0  0  0  0  0
   -3.4820   23.3760   -9.7800 O   0  0  0  0  0  0  0  0  0  0  0  0
   -4.3880   21.8220   -8.3570 C   0  0  1  0  0  0  0  0  0  0  0  0
   -4.7270   22.3110   -7.1050 O   0  0  0  0  0  0  0  0  0  0  0  0
   -4.4430   22.7400  -10.4610 C   0  0  1  0  0  0  0  0  0  0  0  0
   -5.3850   22.3600   -9.3840 C   0  0  2  0  0  0  0  0  0  0  0  0
   -5.0490   23.6330  -11.3680 O   0  0  0  0  0  0  0  0  0  0  0  0
   -6.0980   23.4210   -8.8940 O   0  0  0  0  0  0  0  0  0  0  0  0
   -3.6120   22.0870   -6.2760 C   0  0  0  0  0  0  0  0  0  0  0  0
   -3.4950   20.6620   -5.8490 C   0  0  0  0  0  0  0  0  0  0  0  0
   -2.2380   20.1530   -5.6260 O   0  0  0  0  0  0  0  0  0  0  0  0
   -1.7540   18.6530   -5.9460 P   0  0  0  0  0  0  0  0  0  0  0  0
   -0.4640   19.0800   -6.7040 O   0  0  0  0  0  0  0  0  0  0  0  0
   -0.8590   17.7140   -4.8980 O   0  0  0  0  0  0  0  0  0  0  0  0
   -2.2510   17.8400   -7.2910 O   0  0  0  0  0  0  0  0  0  0  0  0
   -0.2990   19.8570   -8.0220 P   0  0  0  0  0  0  0  0  0  0  0  0
   -1.7830   20.4430   -8.0670 O   0  0  0  0  0  0  0  0  0  0  0  0
    0.9730   20.7770   -7.4700 O   0  0  0  0  0  0  0  0  0  0  0  0
    0.0400   18.4510   -8.8220 O   0  0  0  0  0  0  0  0  0  0  0  0
  2  1  1  1
  2  3  1  0
  2  4  1  0
  4  5  1  1
  3  6  1  0
  4  7  1  0
  6  7  1  0
  6  8  1  6
  7  9  1  1
  5 10  1  0
 10 11  1  0
 11 12  1  0
 12 13  1  0
 13 14  1  0
 13 15  1  0
 13 16  1  0
 14 17  1  0
 17 18  1  0
 17 19  1  0
 17 20  1  0
M  CHG  2  16  -1  19  -1
M  END
>  <%Rank>  (735) 
56.030534

>  <N_hits>  (735) 
2

>  <submitter_name>  (735) 
nan

>  <original SMILES>  (735) 
nan

>  <∆G_unbound>  (735) 
1.214622

>  <∆G_bound>  (735) 
-4.592975

>  <regarded>  (735) 
mArh-6fx_7_0A_α,5CMS_0_K_β

>  <ref_pdb>  (735) 
nan

>  <smiles>  (735) 
CC1OC(O)C(O)C1OCCO[PH]([O-])(O)O[PH]([O-])(O)O

>  <submitter_email>  (735) 
nan

>  <disregarded>  (735) 


>  <LE>  (735) 
-0.29038

>  <submitter_institution>  (735) 
nan

>  <ref_mols>  (735) 
mArh-6fx_7_0A,5CMS_0_K

>  <N_constrained_atoms>  (735) 
18.0

>  <ref_url>  (735) 
nan

>  <method>  (735) 
nan

>  <comRMSD>  (735) 
0.801682

>  <N_unconstrained_atoms>  (735) 
2.0

>  <∆∆G>  (735) 
-5.807598

>  <runtime>  (735) 
31.202095

>  <generation_date>  (735) 
nan

$$$$
mArh-mac-194_0_A_α-4IQY_0_A_β
     RDKit          3D

 24 25  0  0  0  0  0  0  0  0999 V2000
   -7.4620   14.5320    2.8920 N   0  0  0  0  0  0  0  0  0  0  0  0
   -6.8160   14.6060    1.6260 C   0  0  0  0  0  0  0  0  0  0  0  0
   -5.4770   14.6700    1.5110 N   0  0  0  0  0  0  0  0  0  0  0  0
   -7.5070   14.6230    0.4610 N   0  0  0  0  0  0  0  0  0  0  0  0
   -6.8940   14.7970   -0.7310 C   0  0  0  0  0  0  0  0  0  0  0  0
   -4.8090   14.7540    0.3470 C   0  0  0  0  0  0  0  0  0  0  0  0
   -7.5590   14.9310   -1.7870 O   0  0  0  0  0  0  0  0  0  0  0  0
   -5.5140   14.8260   -0.8320 C   0  0  0  0  0  0  0  0  0  0  0  0
   -3.4320   14.7760    0.2730 C   0  0  0  0  0  0  0  0  0  0  0  0
   -2.7660   14.8730   -0.9310 C   0  0  0  0  0  0  0  0  0  0  0  0
   -4.8420   14.9240   -2.0350 C   0  0  0  0  0  0  0  0  0  0  0  0
   -3.4610   14.9540   -2.1260 C   0  0  0  0  0  0  0  0  0  0  0  0
   -2.7530   15.0730   -3.4400 C   0  0  0  0  0  0  0  0  0  0  0  0
   -3.5910   14.8600   -4.6560 C   0  0  0  0  0  0  0  0  0  0  0  0
   -2.9170   15.5230   -5.8370 C   0  0  0  0  0  0  0  0  0  0  0  0
   -3.1780   16.8980   -5.9000 O   0  0  0  0  0  0  0  0  0  0  0  0
   -1.7630   17.7310   -6.1200 P   0  0  0  0  0  0  0  0  0  0  0  0
   -1.7220   19.1950   -6.7980 O   0  0  0  0  0  0  0  0  0  0  0  0
   -0.3560   16.9100   -5.7600 O   0  0  0  0  0  0  0  0  0  0  0  0
   -1.8350   18.2190   -4.7280 O   0  0  0  0  0  0  0  0  0  0  0  0
   -0.4970   19.7120   -7.7010 P   0  0  0  0  0  0  0  0  0  0  0  0
   -1.3690   20.1650   -8.8470 O   0  0  0  0  0  0  0  0  0  0  0  0
    0.5730   19.2410   -6.7220 O   0  0  0  0  0  0  0  0  0  0  0  0
    0.1950   18.6290   -8.7840 O   0  0  0  0  0  0  0  0  0  0  0  0
  1  2  1  0
  2  3  2  0
  2  4  1  0
  4  5  1  0
  3  6  1  0
  5  7  2  0
  5  8  1  0
  6  8  2  0
  6  9  1  0
  9 10  2  0
  8 11  1  0
 10 12  1  0
 11 12  2  0
 12 13  1  0
 13 14  1  0
 14 15  1  0
 15 16  1  0
 16 17  1  0
 17 18  1  0
 17 19  1  0
 17 20  1  0
 18 21  1  0
 21 22  1  0
 21 23  1  0
 21 24  1  0
M  CHG  1  23  -1
M  END
>  <%Rank>  (736) 
56.10687

>  <N_hits>  (736) 
2

>  <submitter_name>  (736) 
nan

>  <original SMILES>  (736) 
nan

>  <∆G_unbound>  (736) 
0.665438

>  <∆G_bound>  (736) 
-9.114574

>  <regarded>  (736) 
mArh-mac-194_0_A_α,4IQY_0_A_β

>  <ref_pdb>  (736) 
nan

>  <smiles>  (736) 
Nc1nc2ccc(CCCO[PH](O)(O)O[PH]([O-])(O)O)cc2c(=O)[nH]1

>  <submitter_email>  (736) 
nan

>  <disregarded>  (736) 


>  <LE>  (736) 
-0.407501

>  <submitter_institution>  (736) 
nan

>  <ref_mols>  (736) 
mArh-mac-194_0_A,4IQY_0_A

>  <N_constrained_atoms>  (736) 
21.0

>  <ref_url>  (736) 
nan

>  <method>  (736) 
nan

>  <comRMSD>  (736) 
0.902335

>  <N_unconstrained_atoms>  (736) 
3.0

>  <∆∆G>  (736) 
-9.780013

>  <runtime>  (736) 
60.113959

>  <generation_date>  (736) 
nan

$$$$
5CMS_0_Q_α-mArh-5cms_F_6_F_β
     RDKit          3D

 17 17  0  0  0  0  0  0  0  0999 V2000
   -1.2950   21.4390   -8.1140 C   0  0  0  0  0  0  0  0  0  0  0  0
   -0.7370   19.8260   -7.9050 P   0  0  0  0  0  0  0  0  0  0  0  0
   -0.5880   18.5660   -7.0390 O   0  0  0  0  0  0  0  0  0  0  0  0
   -1.0670   22.0590   -9.4320 C   0  0  1  0  0  0  0  0  0  0  0  0
   -1.2620   19.5670   -6.4790 O   0  0  0  0  0  0  0  0  0  0  0  0
    0.0440   18.8640   -8.9000 O   0  0  0  0  0  0  0  0  0  0  0  0
   -2.2180   21.5640  -10.1120 O   0  0  0  0  0  0  0  0  0  0  0  0
   -0.9780   23.5560   -9.6700 C   0  0  1  0  0  0  0  0  0  0  0  0
    0.2920   23.8970  -10.2200 O   0  0  0  0  0  0  0  0  0  0  0  0
   -1.7360   18.1310   -6.0280 P   0  0  0  0  0  0  0  0  0  0  0  0
   -2.4460   22.4400  -11.1840 C   0  0  2  0  0  0  0  0  0  0  0  0
   -2.1120   23.8260  -10.6710 C   0  0  2  0  0  0  0  0  0  0  0  0
   -3.8380   22.3760  -11.5120 O   0  0  0  0  0  0  0  0  0  0  0  0
   -1.6920   24.6840  -11.7500 O   0  0  0  0  0  0  0  0  0  0  0  0
   -0.4270   17.2200   -6.0210 O   0  0  0  0  0  0  0  0  0  0  0  0
   -2.8290   17.5230   -6.8160 O   0  0  0  0  0  0  0  0  0  0  0  0
   -1.9900   18.2370   -4.5010 O   0  0  0  0  0  0  0  0  0  0  0  0
  1  2  2  3
  2  3  1  0
  4  1  1  1
  2  5  1  0
  2  6  1  0
  4  7  1  0
  4  8  1  0
  8  9  1  6
  5 10  1  0
  7 11  1  0
  8 12  1  0
 11 12  1  0
 11 13  1  1
 12 14  1  6
 10 15  1  0
 10 16  2  0
 10 17  1  0
M  END
>  <%Rank>  (737) 
56.183206

>  <N_hits>  (737) 
2

>  <submitter_name>  (737) 
nan

>  <original SMILES>  (737) 
nan

>  <∆G_unbound>  (737) 
3.001086

>  <∆G_bound>  (737) 
-6.385943

>  <regarded>  (737) 
5CMS_0_Q_α,mArh-5cms_F_6_F_β

>  <ref_pdb>  (737) 
nan

>  <smiles>  (737) 
O=P(O)(O)OP(O)(O)=CC1OC(O)C(O)C1O

>  <submitter_email>  (737) 
nan

>  <disregarded>  (737) 


>  <LE>  (737) 
-0.552178

>  <submitter_institution>  (737) 
nan

>  <ref_mols>  (737) 
5CMS_0_Q,mArh-5cms_F_6_F

>  <N_constrained_atoms>  (737) 
17.0

>  <ref_url>  (737) 
nan

>  <method>  (737) 
nan

>  <comRMSD>  (737) 
0.967248

>  <N_unconstrained_atoms>  (737) 
0.0

>  <∆∆G>  (737) 
-9.387028

>  <runtime>  (737) 
34.294574

>  <generation_date>  (737) 
nan

$$$$
5CMS_0_L_β-5MQX_0_A_δ
     RDKit          3D

 22 23  0  0  0  0  0  0  0  0999 V2000
   -0.9790   20.1890   -8.6690 O   0  0  0  0  0  0  0  0  0  0  0  0
   -0.1450   19.4940   -7.5880 P   0  0  0  0  0  0  0  0  0  0  0  0
   -1.2560   19.3970   -6.4940 O   0  0  0  0  0  0  0  0  0  0  0  0
    0.9970   20.7020   -7.5790 O   0  0  0  0  0  0  0  0  0  0  0  0
    0.0590   18.3250   -8.7440 O   0  0  0  0  0  0  0  0  0  0  0  0
   -1.8660   17.9530   -5.8990 P   0  0  0  0  0  0  0  0  0  0  0  0
   -0.6440   17.2020   -6.0560 O   0  0  0  0  0  0  0  0  0  0  0  0
   -2.8310   17.0690   -6.7800 O   0  0  0  0  0  0  0  0  0  0  0  0
   -1.8590   17.8970   -4.2270 O   0  0  0  0  0  0  0  0  0  0  0  0
   -1.4200   16.6760   -3.8320 C   0  0  0  0  0  0  0  0  0  0  0  0
   -2.5630   15.5960   -3.7840 C   0  0  0  0  0  0  0  0  0  0  0  0
   -3.2290   15.6050   -2.3970 C   0  0  0  0  0  0  0  0  0  0  0  0
   -3.4020   14.2410   -1.7690 C   0  0  1  0  0  0  0  0  0  0  0  0
   -2.0930   13.5850   -1.5630 N   0  0  0  0  0  0  0  0  0  0  0  0
   -3.9690   14.4250   -0.4470 N   0  0  0  0  0  0  0  0  0  0  0  0
   -1.7310   14.1670   -0.3280 C   0  0  1  0  0  0  0  0  0  0  0  0
   -3.0160   13.8350    0.4570 C   0  0  1  0  0  0  0  0  0  0  0  0
   -0.6470   13.5900    0.3730 N   0  0  0  0  0  0  0  0  0  0  0  0
   -2.8960   14.5110    1.7770 C   0  0  2  0  0  0  0  0  0  0  0  0
   -3.9450   15.5340    1.8610 N   0  0  0  0  0  0  0  0  0  0  0  0
   -0.5000   14.3230    1.5800 C   0  0  0  0  0  0  0  0  0  0  0  0
   -1.6260   15.1940    1.7320 N   0  0  0  0  0  0  0  0  0  0  0  0
  1  2  1  0
  2  3  1  0
  2  4  1  0
  2  5  1  0
  3  6  1  0
  6  7  1  0
  6  8  1  0
  6  9  1  0
  9 10  1  0
 10 11  1  0
 11 12  1  0
 13 12  1  1
 13 14  1  0
 13 15  1  0
 16 14  1  6
 17 15  1  6
 16 17  1  0
 16 18  1  0
 17 19  1  0
 19 20  1  6
 18 21  1  0
 19 22  1  0
 21 22  1  0
M  CHG  2   4  -1   8  -1
M  END
>  <%Rank>  (738) 
56.259542

>  <N_hits>  (738) 
2

>  <submitter_name>  (738) 
nan

>  <original SMILES>  (738) 
nan

>  <∆G_unbound>  (738) 
1.178891

>  <∆G_bound>  (738) 
-6.402257

>  <regarded>  (738) 
5CMS_0_L_β,5MQX_0_A_δ

>  <ref_pdb>  (738) 
nan

>  <smiles>  (738) 
NC1NCNC2NC(CCCO[PH]([O-])(O)O[PH]([O-])(O)O)NC12

>  <submitter_email>  (738) 
nan

>  <disregarded>  (738) 


>  <LE>  (738) 
-0.344598

>  <submitter_institution>  (738) 
nan

>  <ref_mols>  (738) 
5CMS_0_L,5MQX_0_A

>  <N_constrained_atoms>  (738) 
19.0

>  <ref_url>  (738) 
nan

>  <method>  (738) 
nan

>  <comRMSD>  (738) 
0.827696

>  <N_unconstrained_atoms>  (738) 
3.0

>  <∆∆G>  (738) 
-7.581148

>  <runtime>  (738) 
31.362603

>  <generation_date>  (738) 
nan

$$$$
mArh-3q6z_0_A_β-5LW0_0_A_α
     RDKit          3D

 17 17  0  0  0  0  0  0  0  0999 V2000
   -1.9500   21.3540   -7.7960 O   0  0  0  0  0  0  0  0  0  0  0  0
   -0.8650   20.1270   -7.6690 P   0  0  1  0  0  0  0  0  0  0  0  0
   -0.9020   19.6120   -6.1800 O   0  0  0  0  0  0  0  0  0  0  0  0
   -3.2580   21.3480   -8.4180 C   0  0  1  0  0  0  0  0  0  0  0  0
   -0.8030   18.9660   -8.6120 O   0  0  0  0  0  0  0  0  0  0  0  0
    0.5570   20.8750   -7.7050 O   0  0  0  0  0  0  0  0  0  0  0  0
   -4.1430   20.4030   -7.7620 O   0  0  0  0  0  0  0  0  0  0  0  0
   -4.0570   22.6720   -8.4440 C   0  0  1  0  0  0  0  0  0  0  0  0
   -1.3910   18.1520   -5.8050 P   0  0  0  0  0  0  0  0  0  0  0  0
   -4.7260   22.8880   -9.7030 O   0  0  0  0  0  0  0  0  0  0  0  0
   -5.4240   21.0090   -7.7650 C   0  0  2  0  0  0  0  0  0  0  0  0
   -5.1390   22.4380   -7.4230 C   0  0  2  0  0  0  0  0  0  0  0  0
   -0.1500   17.1930   -6.0490 O   0  0  0  0  0  0  0  0  0  0  0  0
   -2.0010   17.9660   -4.4970 O   0  0  0  0  0  0  0  0  0  0  0  0
   -2.4130   17.7220   -6.9340 O   0  0  0  0  0  0  0  0  0  0  0  0
   -6.2660   20.3910   -6.8200 O   0  0  0  0  0  0  0  0  0  0  0  0
   -6.2670   23.2460   -7.7410 O   0  0  0  0  0  0  0  0  0  0  0  0
  1  2  1  0
  2  3  1  0
  4  1  1  1
  2  5  2  0
  2  6  1  1
  4  7  1  0
  4  8  1  0
  3  9  1  0
  8 10  1  6
  7 11  1  0
  8 12  1  0
 11 12  1  0
  9 13  1  0
  9 14  2  0
  9 15  1  0
 11 16  1  1
 12 17  1  6
M  END
>  <%Rank>  (739) 
56.335878

>  <N_hits>  (739) 
2

>  <submitter_name>  (739) 
nan

>  <original SMILES>  (739) 
nan

>  <∆G_unbound>  (739) 
1.622845

>  <∆G_bound>  (739) 
-6.528352

>  <regarded>  (739) 
mArh-3q6z_0_A_β,5LW0_0_A_α

>  <ref_pdb>  (739) 
nan

>  <smiles>  (739) 
O=P(O)(O)OP(=O)(O)OC1OC(O)C(O)C1O

>  <submitter_email>  (739) 
nan

>  <disregarded>  (739) 


>  <LE>  (739) 
-0.479482

>  <submitter_institution>  (739) 
nan

>  <ref_mols>  (739) 
mArh-3q6z_0_A,5LW0_0_A

>  <N_constrained_atoms>  (739) 
17.0

>  <ref_url>  (739) 
nan

>  <method>  (739) 
nan

>  <comRMSD>  (739) 
0.93309

>  <N_unconstrained_atoms>  (739) 
0.0

>  <∆∆G>  (739) 
-8.151196

>  <runtime>  (739) 
33.918883

>  <generation_date>  (739) 
nan

$$$$
3Q6Z_0_A_β-mArh-5cb5_I_0_I_α
     RDKit          3D

 17 17  0  0  0  0  0  0  0  0999 V2000
   -1.7010   21.1660   -8.8840 O   0  0  0  0  0  0  0  0  0  0  0  0
   -0.7160   20.2280   -7.8660 P   0  0  0  0  0  0  0  0  0  0  0  0
   -1.3500   19.6130   -6.4890 O   0  0  0  0  0  0  0  0  0  0  0  0
   -3.0580   21.4960   -8.6000 C   0  0  1  0  0  0  0  0  0  0  0  0
   -1.0070   18.9050   -8.5550 O   0  0  0  0  0  0  0  0  0  0  0  0
   -0.2790   21.5440   -7.2460 O   0  0  0  0  0  0  0  0  0  0  0  0
   -3.5660   21.0320   -7.4350 O   0  0  0  0  0  0  0  0  0  0  0  0
   -3.3350   23.0300   -8.5200 C   0  0  1  0  0  0  0  0  0  0  0  0
   -1.2600   18.1540   -5.9940 P   0  0  0  0  0  0  0  0  0  0  0  0
   -4.1020   23.3220   -9.6420 O   0  0  0  0  0  0  0  0  0  0  0  0
   -4.7060   21.7480   -7.1890 C   0  0  2  0  0  0  0  0  0  0  0  0
   -4.2730   23.1620   -7.3110 C   0  0  2  0  0  0  0  0  0  0  0  0
   -0.9880   16.7460   -5.4400 O   0  0  0  0  0  0  0  0  0  0  0  0
   -1.5490   18.7240   -4.4890 O   0  0  0  0  0  0  0  0  0  0  0  0
   -2.5620   17.6610   -6.8600 O   0  0  0  0  0  0  0  0  0  0  0  0
   -5.3520   21.4880   -5.9850 O   0  0  0  0  0  0  0  0  0  0  0  0
   -5.3450   23.9750   -7.7400 O   0  0  0  0  0  0  0  0  0  0  0  0
  1  2  1  0
  2  3  1  0
  4  1  1  1
  2  5  1  0
  2  6  1  0
  4  7  1  0
  4  8  1  0
  3  9  1  0
  8 10  1  6
  7 11  1  0
  8 12  1  0
 11 12  1  0
  9 13  1  0
  9 14  1  0
  9 15  1  0
 11 16  1  1
 12 17  1  6
M  CHG  2   5  -1  14  -1
M  END
>  <%Rank>  (740) 
56.412214

>  <N_hits>  (740) 
2

>  <submitter_name>  (740) 
nan

>  <original SMILES>  (740) 
nan

>  <∆G_unbound>  (740) 
0.966126

>  <∆G_bound>  (740) 
-6.30364

>  <regarded>  (740) 
3Q6Z_0_A_β,mArh-5cb5_I_0_I_α

>  <ref_pdb>  (740) 
nan

>  <smiles>  (740) 
[O-][PH](O)(O)O[PH]([O-])(O)OC1OC(O)C(O)C1O

>  <submitter_email>  (740) 
nan

>  <disregarded>  (740) 


>  <LE>  (740) 
-0.427633

>  <submitter_institution>  (740) 
nan

>  <ref_mols>  (740) 
3Q6Z_0_A,mArh-5cb5_I_0_I

>  <N_constrained_atoms>  (740) 
17.0

>  <ref_url>  (740) 
nan

>  <method>  (740) 
nan

>  <comRMSD>  (740) 
0.90735

>  <N_unconstrained_atoms>  (740) 
0.0

>  <∆∆G>  (740) 
-7.269766

>  <runtime>  (740) 
36.449886

>  <generation_date>  (740) 
nan

$$$$
mArh-x0228_0_B_β-5CB5_0_I_β
     RDKit          3D

 21 21  0  0  0  0  0  0  0  0999 V2000
   -6.6600   25.1730  -13.8440 N   0  0  0  0  0  0  0  0  0  0  0  0
   -5.6330   25.0240  -12.8820 C   0  0  0  0  0  0  0  0  0  0  0  0
   -4.5070   25.8050  -13.0900 C   0  0  0  0  0  0  0  0  0  0  0  0
   -5.7880   24.1310  -11.8090 C   0  0  0  0  0  0  0  0  0  0  0  0
   -4.3680   26.6700  -14.1730 O   0  0  0  0  0  0  0  0  0  0  0  0
   -4.7470   24.0090  -10.8820 C   0  0  0  0  0  0  0  0  0  0  0  0
   -3.5370   25.6730  -12.1730 C   0  0  0  0  0  0  0  0  0  0  0  0
   -3.0930   26.7620  -14.8030 C   0  0  0  0  0  0  0  0  0  0  0  0
   -4.6460   23.1200   -9.6590 C   0  0  0  0  0  0  0  0  0  0  0  0
   -3.7310   24.7830  -11.1400 C   0  0  0  0  0  0  0  0  0  0  0  0
   -3.2490   22.8840   -9.0160 C   0  0  0  0  0  0  0  0  0  0  0  0
   -2.7260   21.4720   -8.9140 C   0  0  0  0  0  0  0  0  0  0  0  0
   -1.3320   21.2100   -8.8180 O   0  0  0  0  0  0  0  0  0  0  0  0
   -0.5930   20.1050   -7.9280 P   0  0  0  0  0  0  0  0  0  0  0  0
   -1.8340   19.9220   -6.8960 O   0  0  0  0  0  0  0  0  0  0  0  0
    0.5970   21.2920   -7.6600 O   0  0  0  0  0  0  0  0  0  0  0  0
   -0.2330   18.9320   -8.9520 O   0  0  0  0  0  0  0  0  0  0  0  0
   -1.9080   18.7290   -5.9360 P   0  0  0  0  0  0  0  0  0  0  0  0
   -0.2740   18.4190   -6.0580 O   0  0  0  0  0  0  0  0  0  0  0  0
   -2.8610   17.9160   -6.9800 O   0  0  0  0  0  0  0  0  0  0  0  0
   -2.0920   17.6030   -4.9310 O   0  0  0  0  0  0  0  0  0  0  0  0
  1  2  1  0
  2  3  2  0
  2  4  1  0
  3  5  1  0
  4  6  2  0
  3  7  1  0
  5  8  1  0
  6  9  1  0
  6 10  1  0
  7 10  2  0
  9 11  1  0
 11 12  1  0
 12 13  1  0
 13 14  1  0
 14 15  1  0
 14 16  1  0
 14 17  1  0
 15 18  1  0
 18 19  1  0
 18 20  1  0
 18 21  1  0
M  CHG  2  16  -1  20  -1
M  END
>  <%Rank>  (741) 
56.48855

>  <N_hits>  (741) 
2

>  <submitter_name>  (741) 
nan

>  <original SMILES>  (741) 
nan

>  <∆G_unbound>  (741) 
1.421382

>  <∆G_bound>  (741) 
-6.239452

>  <regarded>  (741) 
mArh-x0228_0_B_β,5CB5_0_I_β

>  <ref_pdb>  (741) 
nan

>  <smiles>  (741) 
COc1ccc(CCCO[PH]([O-])(O)O[PH]([O-])(O)O)cc1N

>  <submitter_email>  (741) 
nan

>  <disregarded>  (741) 


>  <LE>  (741) 
-0.364802

>  <submitter_institution>  (741) 
nan

>  <ref_mols>  (741) 
mArh-x0228_0_B,5CB5_0_I

>  <N_constrained_atoms>  (741) 
19.0

>  <ref_url>  (741) 
nan

>  <method>  (741) 
nan

>  <comRMSD>  (741) 
0.867072

>  <N_unconstrained_atoms>  (741) 
2.0

>  <∆∆G>  (741) 
-7.660834

>  <runtime>  (741) 
37.684359

>  <generation_date>  (741) 
nan

$$$$
5CB5_0_M_α-5CMS_0_J_γ
     RDKit          3D

 25 26  0  0  0  0  0  0  0  0999 V2000
   -1.7710   21.9530   -8.1660 C   0  0  0  0  0  0  0  0  0  0  0  0
   -3.1690   22.0790   -8.7550 C   0  0  2  0  0  0  0  0  0  0  0  0
   -3.8380   23.4380   -8.5950 C   0  0  1  0  0  0  0  0  0  0  0  0
   -4.0190   21.0970   -8.1800 O   0  0  0  0  0  0  0  0  0  0  0  0
   -3.9890   24.0920   -9.8480 O   0  0  0  0  0  0  0  0  0  0  0  0
   -5.2290   23.0570   -8.2180 C   0  0  1  0  0  0  0  0  0  0  0  0
   -5.1150   21.7180   -7.5180 C   0  0  2  0  0  0  0  0  0  0  0  0
   -5.9640   24.0910   -7.6040 O   0  0  0  0  0  0  0  0  0  0  0  0
   -4.9850   21.5680   -6.1070 O   0  0  0  0  0  0  0  0  0  0  0  0
   -7.0930   24.2020   -8.4860 C   0  0  2  0  0  0  0  0  0  0  0  0
   -3.5850   21.4450   -5.7360 C   0  0  0  0  0  0  0  0  0  0  0  0
   -6.8050   24.8630   -9.8100 C   0  0  0  0  0  0  0  0  0  0  0  0
   -8.2140   24.8350   -7.9490 O   0  0  0  0  0  0  0  0  0  0  0  0
   -2.9040   20.1780   -6.3410 C   0  0  0  0  0  0  0  0  0  0  0  0
   -1.7330   19.5980   -5.5610 C   0  0  0  0  0  0  0  0  0  0  0  0
   -1.3630   18.1060   -5.7590 C   0  0  0  0  0  0  0  0  0  0  0  0
    0.1610   17.8830   -5.9080 C   0  0  0  0  0  0  0  0  0  0  0  0
    0.7200   16.5820   -5.2700 C   0  0  0  0  0  0  0  0  0  0  0  0
   -0.3150   15.5800   -4.7520 C   0  0  2  0  0  0  0  0  0  0  0  0
   -0.3570   15.5430   -3.3120 O   0  0  0  0  0  0  0  0  0  0  0  0
   -0.2300   14.0970   -5.1500 C   0  0  1  0  0  0  0  0  0  0  0  0
    0.9560   13.4120   -4.7400 O   0  0  0  0  0  0  0  0  0  0  0  0
   -1.0880   14.3480   -2.9770 C   0  0  0  0  0  0  0  0  0  0  0  0
   -1.4040   13.6390   -4.3010 C   0  0  2  0  0  0  0  0  0  0  0  0
   -1.4830   12.2230   -4.2100 O   0  0  0  0  0  0  0  0  0  0  0  0
  2  1  1  1
  2  3  1  0
  2  4  1  0
  3  5  1  6
  3  6  1  0
  4  7  1  0
  6  7  1  0
  6  8  1  1
  7  9  1  1
  8 10  1  0
  9 11  1  0
 10 12  1  6
 10 13  1  0
 11 14  1  0
 14 15  1  0
 15 16  1  0
 16 17  1  0
 17 18  1  0
 19 18  1  1
 19 20  1  0
 19 21  1  0
 21 22  1  1
 20 23  1  0
 21 24  1  0
 23 24  1  0
 24 25  1  1
M  END
>  <%Rank>  (742) 
56.564885

>  <N_hits>  (742) 
2

>  <submitter_name>  (742) 
nan

>  <original SMILES>  (742) 
nan

>  <∆G_unbound>  (742) 
1.998603

>  <∆G_bound>  (742) 
-6.731917

>  <regarded>  (742) 
5CB5_0_M_α,5CMS_0_J_γ

>  <ref_pdb>  (742) 
nan

>  <smiles>  (742) 
CC1OC(OCCCCCCC2OCC(O)C2O)C(O[C@H](C)O)C1O

>  <submitter_email>  (742) 
nan

>  <disregarded>  (742) 


>  <LE>  (742) 
-0.349221

>  <submitter_institution>  (742) 
nan

>  <ref_mols>  (742) 
5CB5_0_M,5CMS_0_J

>  <N_constrained_atoms>  (742) 
20.0

>  <ref_url>  (742) 
nan

>  <method>  (742) 
nan

>  <comRMSD>  (742) 
0.807626

>  <N_unconstrained_atoms>  (742) 
5.0

>  <∆∆G>  (742) 
-8.730519

>  <runtime>  (742) 
39.202338

>  <generation_date>  (742) 
nan

$$$$
mArh-5cb5_M_1_M_α-mArh-EU0034_0_A_α
     RDKit          3D

 27 29  0  0  0  0  0  0  0  0999 V2000
   -1.8610   21.5700   -8.2760 C   0  0  0  0  0  0  0  0  0  0  0  0
   -3.2390   21.8570   -8.8730 C   0  0  2  0  0  0  0  0  0  0  0  0
   -3.8070   23.2170   -8.4990 C   0  0  1  0  0  0  0  0  0  0  0  0
   -4.2190   20.8790   -8.4350 O   0  0  0  0  0  0  0  0  0  0  0  0
   -4.0380   24.0820   -9.5950 O   0  0  0  0  0  0  0  0  0  0  0  0
   -5.1290   22.7770   -8.0030 C   0  0  1  0  0  0  0  0  0  0  0  0
   -4.9360   21.4010   -7.3480 C   0  0  2  0  0  0  0  0  0  0  0  0
   -5.9840   23.8370   -7.5420 O   0  0  0  0  0  0  0  0  0  0  0  0
   -4.0430   21.1260   -6.2600 O   0  0  0  0  0  0  0  0  0  0  0  0
   -6.9720   23.7500   -8.4980 C   0  0  0  0  0  0  0  0  0  0  0  0
   -3.2120   19.9610   -6.6170 C   0  0  0  0  0  0  0  0  0  0  0  0
   -7.7790   24.9490   -8.8950 C   0  0  0  0  0  0  0  0  0  0  0  0
   -7.2320   22.6810   -8.9990 O   0  0  0  0  0  0  0  0  0  0  0  0
   -2.2220   19.4280   -5.5410 C   0  0  0  0  0  0  0  0  0  0  0  0
   -1.6980   17.9260   -5.5910 C   0  0  0  0  0  0  0  0  0  0  0  0
   -2.4640   16.6390   -5.0660 C   0  0  0  0  0  0  0  0  0  0  0  0
   -2.2200   16.0570   -3.6310 C   0  0  0  0  0  0  0  0  0  0  0  0
   -3.3580   15.2530   -2.8950 C   0  0  0  0  0  0  0  0  0  0  0  0
   -3.3440   15.4910   -1.3470 C   0  0  2  0  0  0  0  0  0  0  0  0
   -2.1160   15.0740   -0.6480 C   0  0  0  0  0  0  0  0  0  0  0  0
   -4.3450   14.8170   -0.3530 C   0  0  0  0  0  0  0  0  0  0  0  0
   -2.3910   14.8820    0.6970 C   0  0  0  0  0  0  0  0  0  0  0  0
   -0.8510   14.8670   -1.0760 C   0  0  0  0  0  0  0  0  0  0  0  0
   -3.7620   15.1130    0.9820 N   0  0  0  0  0  0  0  0  0  0  0  0
    0.1130   14.4920   -0.2320 N   0  0  0  0  0  0  0  0  0  0  0  0
   -1.4850   14.5230    1.5910 N   0  0  0  0  0  0  0  0  0  0  0  0
   -0.2700   14.3450    1.0660 C   0  0  0  0  0  0  0  0  0  0  0  0
  2  1  1  1
  2  3  1  0
  2  4  1  0
  3  5  1  6
  3  6  1  0
  4  7  1  0
  6  7  1  0
  6  8  1  1
  7  9  1  1
  8 10  1  0
  9 11  1  0
 10 12  1  0
 10 13  2  0
 11 14  1  0
 14 15  1  0
 15 16  1  0
 16 17  1  0
 17 18  1  0
 19 18  1  6
 19 20  1  0
 19 21  1  0
 20 22  2  0
 20 23  1  0
 21 24  1  0
 22 24  1  0
 23 25  2  0
 22 26  1  0
 25 27  1  0
 26 27  2  0
M  END
>  <%Rank>  (743) 
56.641221

>  <N_hits>  (743) 
2

>  <submitter_name>  (743) 
nan

>  <original SMILES>  (743) 
nan

>  <∆G_unbound>  (743) 
0.908836

>  <∆G_bound>  (743) 
-9.528524

>  <regarded>  (743) 
mArh-5cb5_M_1_M_α,mArh-EU0034_0_A_α

>  <ref_pdb>  (743) 
nan

>  <smiles>  (743) 
CC(=O)OC1C(OCCCCCCC2CNc3ncncc32)OC(C)C1O

>  <submitter_email>  (743) 
nan

>  <disregarded>  (743) 


>  <LE>  (743) 
-0.386569

>  <submitter_institution>  (743) 
nan

>  <ref_mols>  (743) 
mArh-5cb5_M_1_M,mArh-EU0034_0_A

>  <N_constrained_atoms>  (743) 
21.0

>  <ref_url>  (743) 
nan

>  <method>  (743) 
nan

>  <comRMSD>  (743) 
0.826752

>  <N_unconstrained_atoms>  (743) 
6.0

>  <∆∆G>  (743) 
-10.437359

>  <runtime>  (743) 
58.292619

>  <generation_date>  (743) 
nan

$$$$
mArh-5cms_N_13_N_β-mArh-5cms_H_7_H_β
     RDKit          3D

  9  8  0  0  0  0  0  0  0  0999 V2000
   -1.2810   20.5900   -8.8830 O   0  0  0  0  0  0  0  0  0  0  0  0
   -0.3510   19.8000   -7.8700 P   0  0  0  0  0  0  0  0  0  0  0  0
   -1.3220   19.4910   -6.6880 O   0  0  0  0  0  0  0  0  0  0  0  0
    0.9120   20.5020   -7.5690 O   0  0  0  0  0  0  0  0  0  0  0  0
   -0.1430   18.4550   -8.7110 O   0  0  0  0  0  0  0  0  0  0  0  0
   -1.6720   18.0760   -6.1050 P   0  0  0  0  0  0  0  0  0  0  0  0
   -0.3140   17.2600   -6.2000 O   0  0  0  0  0  0  0  0  0  0  0  0
   -2.8080   17.4270   -6.7850 O   0  0  0  0  0  0  0  0  0  0  0  0
   -1.8180   18.2900   -4.5470 O   0  0  0  0  0  0  0  0  0  0  0  0
  1  2  1  0
  2  3  1  0
  2  4  2  0
  2  5  1  0
  3  6  1  0
  6  7  1  0
  6  8  2  0
  6  9  1  0
M  END
>  <%Rank>  (744) 
56.717557

>  <N_hits>  (744) 
2

>  <submitter_name>  (744) 
nan

>  <original SMILES>  (744) 
nan

>  <∆G_unbound>  (744) 
0.687887

>  <∆G_bound>  (744) 
-6.932269

>  <regarded>  (744) 
mArh-5cms_N_13_N_β,mArh-5cms_H_7_H_β

>  <ref_pdb>  (744) 
nan

>  <smiles>  (744) 
O=P(O)(O)OP(=O)(O)O

>  <submitter_email>  (744) 
nan

>  <disregarded>  (744) 


>  <LE>  (744) 
-0.846684

>  <submitter_institution>  (744) 
nan

>  <ref_mols>  (744) 
mArh-5cms_N_13_N,mArh-5cms_H_7_H

>  <N_constrained_atoms>  (744) 
9.0

>  <ref_url>  (744) 
nan

>  <method>  (744) 
nan

>  <comRMSD>  (744) 
0.898294

>  <N_unconstrained_atoms>  (744) 
0.0

>  <∆∆G>  (744) 
-7.620156

>  <runtime>  (744) 
19.415072

>  <generation_date>  (744) 
nan

$$$$
5CMS_0_A_β-4IQY_0_B_β
     RDKit          3D

  9  8  0  0  0  0  0  0  0  0999 V2000
   -1.7520   20.4580   -8.0540 O   0  0  0  0  0  0  0  0  0  0  0  0
   -0.2610   19.8480   -8.0140 P   0  0  0  0  0  0  0  0  0  0  0  0
   -0.3400   18.9590   -6.7970 O   0  0  0  0  0  0  0  0  0  0  0  0
    1.0100   20.7340   -7.4490 O   0  0  0  0  0  0  0  0  0  0  0  0
    0.0720   18.4940   -8.9320 O   0  0  0  0  0  0  0  0  0  0  0  0
   -1.7250   18.4380   -6.1120 P   0  0  0  0  0  0  0  0  0  0  0  0
   -1.0210   17.4110   -5.2370 O   0  0  0  0  0  0  0  0  0  0  0  0
   -2.6510   17.2650   -6.7670 O   0  0  0  0  0  0  0  0  0  0  0  0
   -2.3280   19.3500   -4.8710 O   0  0  0  0  0  0  0  0  0  0  0  0
  1  2  1  0
  2  3  1  0
  2  4  1  0
  2  5  1  0
  3  6  1  0
  6  7  1  0
  6  8  1  0
  6  9  1  0
M  CHG  2   4  -1   8  -1
M  END
>  <%Rank>  (745) 
56.793893

>  <N_hits>  (745) 
2

>  <submitter_name>  (745) 
nan

>  <original SMILES>  (745) 
nan

>  <∆G_unbound>  (745) 
0.654534

>  <∆G_bound>  (745) 
-5.788729

>  <regarded>  (745) 
5CMS_0_A_β,4IQY_0_B_β

>  <ref_pdb>  (745) 
nan

>  <smiles>  (745) 
[O-][PH](O)(O)O[PH]([O-])(O)O

>  <submitter_email>  (745) 
nan

>  <disregarded>  (745) 


>  <LE>  (745) 
-0.715918

>  <submitter_institution>  (745) 
nan

>  <ref_mols>  (745) 
5CMS_0_A,4IQY_0_B

>  <N_constrained_atoms>  (745) 
9.0

>  <ref_url>  (745) 
nan

>  <method>  (745) 
nan

>  <comRMSD>  (745) 
0.833151

>  <N_unconstrained_atoms>  (745) 
0.0

>  <∆∆G>  (745) 
-6.443263

>  <runtime>  (745) 
22.945086

>  <generation_date>  (745) 
nan

$$$$
5CB5_0_H_β-mArh-5cb5_I_0_I_α
     RDKit          3D

 17 17  0  0  0  0  0  0  0  0999 V2000
   -1.6800   21.2850   -8.9840 O   0  0  0  0  0  0  0  0  0  0  0  0
   -0.7510   20.3170   -7.9450 P   0  0  0  0  0  0  0  0  0  0  0  0
   -1.4430   19.7620   -6.5800 O   0  0  0  0  0  0  0  0  0  0  0  0
   -3.0490   21.5510   -8.7340 C   0  0  1  0  0  0  0  0  0  0  0  0
   -0.3210   21.6010   -7.2660 O   0  0  0  0  0  0  0  0  0  0  0  0
   -1.0310   19.0110   -8.6720 O   0  0  0  0  0  0  0  0  0  0  0  0
   -3.5540   21.0590   -7.5740 O   0  0  0  0  0  0  0  0  0  0  0  0
   -3.3470   23.0750   -8.6230 C   0  0  1  0  0  0  0  0  0  0  0  0
   -1.3350   18.3180   -6.0670 P   0  0  0  0  0  0  0  0  0  0  0  0
   -4.1030   23.3830   -9.7450 O   0  0  0  0  0  0  0  0  0  0  0  0
   -4.6930   21.7590   -7.2880 C   0  0  2  0  0  0  0  0  0  0  0  0
   -4.2890   23.1790   -7.4120 C   0  0  2  0  0  0  0  0  0  0  0  0
   -1.0780   16.8720   -5.6240 O   0  0  0  0  0  0  0  0  0  0  0  0
   -2.6080   17.8800   -6.9950 O   0  0  0  0  0  0  0  0  0  0  0  0
   -1.6550   18.7940   -4.5360 O   0  0  0  0  0  0  0  0  0  0  0  0
   -5.3050   21.4850   -6.0730 O   0  0  0  0  0  0  0  0  0  0  0  0
   -5.3580   23.9760   -7.8460 O   0  0  0  0  0  0  0  0  0  0  0  0
  1  2  1  0
  2  3  1  0
  4  1  1  1
  2  5  1  0
  2  6  1  0
  4  7  1  0
  4  8  1  0
  3  9  1  0
  8 10  1  6
  7 11  1  0
  8 12  1  0
 11 12  1  0
  9 13  1  0
  9 14  1  0
  9 15  1  0
 11 16  1  1
 12 17  1  6
M  CHG  2   5  -1  14  -1
M  END
>  <%Rank>  (746) 
56.870229

>  <N_hits>  (746) 
2

>  <submitter_name>  (746) 
nan

>  <original SMILES>  (746) 
nan

>  <∆G_unbound>  (746) 
0.972863

>  <∆G_bound>  (746) 
-5.871352

>  <regarded>  (746) 
5CB5_0_H_β,mArh-5cb5_I_0_I_α

>  <ref_pdb>  (746) 
nan

>  <smiles>  (746) 
[O-][PH](O)(O)O[PH]([O-])(O)OC1OC(O)C(O)C1O

>  <submitter_email>  (746) 
nan

>  <disregarded>  (746) 


>  <LE>  (746) 
-0.402601

>  <submitter_institution>  (746) 
nan

>  <ref_mols>  (746) 
5CB5_0_H,mArh-5cb5_I_0_I

>  <N_constrained_atoms>  (746) 
17.0

>  <ref_url>  (746) 
nan

>  <method>  (746) 
nan

>  <comRMSD>  (746) 
0.901227

>  <N_unconstrained_atoms>  (746) 
0.0

>  <∆∆G>  (746) 
-6.844216

>  <runtime>  (746) 
31.333847

>  <generation_date>  (746) 
nan

$$$$
5FUD_1_B_α-mArh-5cb5_C_0_C_γ
     RDKit          3D

 22 23  0  0  0  0  0  0  0  0999 V2000
   -1.2160   20.2900   -6.1530 O   0  0  0  0  0  0  0  0  0  0  0  0
   -0.7730   20.3940   -7.6900 S   0  0  0  0  0  0  0  0  0  0  0  0
    0.4170   21.4390   -7.8830 O   0  0  0  0  0  0  0  0  0  0  0  0
   -0.3780   18.9450   -8.1570 O   0  0  0  0  0  0  0  0  0  0  0  0
   -2.2130   21.0040   -8.4080 C   0  0  0  0  0  0  0  0  0  0  0  0
   -2.4660   22.3960   -7.9930 C   0  0  0  0  0  0  0  0  0  0  0  0
    0.4670   18.5780   -7.0860 C   0  0  0  0  0  0  0  0  0  0  0  0
   -0.3090   17.9310   -5.9740 C   0  0  0  0  0  0  0  0  0  0  0  0
   -3.8840   22.6190   -7.9570 N   0  0  0  0  0  0  0  0  0  0  0  0
    0.5280   16.9050   -5.2310 C   0  0  0  0  0  0  0  0  0  0  0  0
   -4.4240   22.9110   -9.3040 C   0  0  0  0  0  0  0  0  0  0  0  0
   -4.0820   23.7460   -7.0790 C   0  0  0  0  0  0  0  0  0  0  0  0
   -5.9150   23.2240   -9.2140 C   0  0  0  0  0  0  0  0  0  0  0  0
   -5.5600   23.9360   -7.0120 C   0  0  0  0  0  0  0  0  0  0  0  0
   -0.2600   15.7490   -4.6420 C   0  0  2  0  0  0  0  0  0  0  0  0
   -6.0970   24.2920   -8.2860 O   0  0  0  0  0  0  0  0  0  0  0  0
   -0.3010   15.7710   -3.2110 O   0  0  0  0  0  0  0  0  0  0  0  0
    0.0920   14.3120   -5.0500 C   0  0  1  0  0  0  0  0  0  0  0  0
    1.4510   14.1060   -5.3830 O   0  0  0  0  0  0  0  0  0  0  0  0
   -0.8900   14.5230   -2.8660 C   0  0  0  0  0  0  0  0  0  0  0  0
   -0.1810   13.5290   -3.7780 C   0  0  1  0  0  0  0  0  0  0  0  0
   -0.9710   12.4060   -4.1090 O   0  0  0  0  0  0  0  0  0  0  0  0
  2  1  1  0
  2  3  1  0
  2  4  1  0
  2  5  1  0
  5  6  1  0
  4  7  1  0
  7  8  1  0
  6  9  1  0
  8 10  1  0
  9 11  1  0
  9 12  1  0
 11 13  1  0
 12 14  1  0
 15 10  1  1
 13 16  1  0
 14 16  1  0
 15 17  1  0
 15 18  1  0
 18 19  1  1
 17 20  1  0
 18 21  1  0
 20 21  1  0
 21 22  1  6
M  END
>  <%Rank>  (747) 
56.946565

>  <N_hits>  (747) 
2

>  <submitter_name>  (747) 
nan

>  <original SMILES>  (747) 
nan

>  <∆G_unbound>  (747) 
1.344841

>  <∆G_bound>  (747) 
-9.665342

>  <regarded>  (747) 
5FUD_1_B_α,mArh-5cb5_C_0_C_γ

>  <ref_pdb>  (747) 
nan

>  <smiles>  (747) 
OC1COC(CCCOS(O)(O)CCN2CCOCC2)C1O

>  <submitter_email>  (747) 
nan

>  <disregarded>  (747) 


>  <LE>  (747) 
-0.500463

>  <submitter_institution>  (747) 
nan

>  <ref_mols>  (747) 
5FUD_1_B,mArh-5cb5_C_0_C

>  <N_constrained_atoms>  (747) 
20.0

>  <ref_url>  (747) 
nan

>  <method>  (747) 
nan

>  <comRMSD>  (747) 
0.962459

>  <N_unconstrained_atoms>  (747) 
2.0

>  <∆∆G>  (747) 
-11.010183

>  <runtime>  (747) 
43.79197

>  <generation_date>  (747) 
nan

$$$$
5CB5_0_Q_β-6FX7_0_A_α
     RDKit          3D

 17 17  0  0  0  0  0  0  0  0999 V2000
   -2.3230   21.0840   -8.7250 O   0  0  0  0  0  0  0  0  0  0  0  0
   -0.9080   20.4470   -7.9960 P   0  0  0  0  0  0  0  0  0  0  0  0
   -1.0930   19.8220   -6.4960 O   0  0  0  0  0  0  0  0  0  0  0  0
   -2.7350   22.3970   -8.3450 C   0  0  1  0  0  0  0  0  0  0  0  0
   -0.5960   21.8020   -7.3920 O   0  0  0  0  0  0  0  0  0  0  0  0
   -1.0550   19.0560   -8.6120 O   0  0  0  0  0  0  0  0  0  0  0  0
   -3.0280   23.1830   -9.4190 O   0  0  0  0  0  0  0  0  0  0  0  0
   -4.1860   22.4740   -7.7780 C   0  0  2  0  0  0  0  0  0  0  0  0
   -1.3820   18.3700   -6.0490 P   0  0  0  0  0  0  0  0  0  0  0  0
   -4.4030   21.4300   -6.9250 O   0  0  0  0  0  0  0  0  0  0  0  0
   -4.0600   22.6020  -10.0900 C   0  0  1  0  0  0  0  0  0  0  0  0
   -5.0730   22.3680   -9.0410 C   0  0  2  0  0  0  0  0  0  0  0  0
   -1.5030   16.9060   -5.6090 O   0  0  0  0  0  0  0  0  0  0  0  0
   -2.6310   18.1960   -7.0870 O   0  0  0  0  0  0  0  0  0  0  0  0
   -1.7360   18.9170   -4.5470 O   0  0  0  0  0  0  0  0  0  0  0  0
   -4.5910   23.2970  -11.1680 O   0  0  0  0  0  0  0  0  0  0  0  0
   -5.9910   23.4270   -8.9990 O   0  0  0  0  0  0  0  0  0  0  0  0
  1  2  1  0
  2  3  1  0
  4  1  1  6
  2  5  1  0
  2  6  1  0
  4  7  1  0
  4  8  1  0
  3  9  1  0
  8 10  1  1
  7 11  1  0
  8 12  1  0
 11 12  1  0
  9 13  1  0
  9 14  1  0
  9 15  1  0
 11 16  1  6
 12 17  1  1
M  CHG  2   5  -1  14  -1
M  END
>  <%Rank>  (748) 
57.022901

>  <N_hits>  (748) 
2

>  <submitter_name>  (748) 
nan

>  <original SMILES>  (748) 
nan

>  <∆G_unbound>  (748) 
0.972863

>  <∆G_bound>  (748) 
-5.3085

>  <regarded>  (748) 
5CB5_0_Q_β,6FX7_0_A_α

>  <ref_pdb>  (748) 
nan

>  <smiles>  (748) 
[O-][PH](O)(O)O[PH]([O-])(O)OC1OC(O)C(O)C1O

>  <submitter_email>  (748) 
nan

>  <disregarded>  (748) 


>  <LE>  (748) 
-0.369492

>  <submitter_institution>  (748) 
nan

>  <ref_mols>  (748) 
5CB5_0_Q,6FX7_0_A

>  <N_constrained_atoms>  (748) 
17.0

>  <ref_url>  (748) 
nan

>  <method>  (748) 
nan

>  <comRMSD>  (748) 
0.886218

>  <N_unconstrained_atoms>  (748) 
0.0

>  <∆∆G>  (748) 
-6.281364

>  <runtime>  (748) 
33.236588

>  <generation_date>  (748) 
nan

$$$$
mArh-x0910_0_A_α-5CMS_0_N_β
     RDKit          3D

 18 18  0  0  0  0  0  0  0  0999 V2000
   -2.9770   15.2990   -1.5840 N   0  0  0  0  0  0  0  0  0  0  0  0
   -1.8950   15.2110   -0.6670 C   0  0  0  0  0  0  0  0  0  0  0  0
   -2.0930   14.8870    0.6120 N   0  0  0  0  0  0  0  0  0  0  0  0
   -0.5680   15.4610   -1.0640 N   0  0  0  0  0  0  0  0  0  0  0  0
   -1.1890   15.7030   -2.3760 C   0  0  0  0  0  0  0  0  0  0  0  0
   -0.9860   14.8760    1.1890 N   0  0  0  0  0  0  0  0  0  0  0  0
   -0.1100   15.2020    0.2390 C   0  0  0  0  0  0  0  0  0  0  0  0
   -0.1170   16.0720   -3.3950 C   0  0  0  0  0  0  0  0  0  0  0  0
   -0.1960   17.5300   -3.8470 C   0  0  0  0  0  0  0  0  0  0  0  0
   -1.4180   17.8960   -4.3840 O   0  0  0  0  0  0  0  0  0  0  0  0
   -1.4310   17.8730   -5.9690 P   0  0  0  0  0  0  0  0  0  0  0  0
   -1.1840   19.3420   -6.3030 O   0  0  0  0  0  0  0  0  0  0  0  0
   -0.0270   17.5150   -6.7370 O   0  0  0  0  0  0  0  0  0  0  0  0
   -2.8160   17.9810   -6.9010 O   0  0  0  0  0  0  0  0  0  0  0  0
   -0.8070   19.6590   -7.9090 P   0  0  0  0  0  0  0  0  0  0  0  0
   -1.4630   20.9310   -8.6060 O   0  0  0  0  0  0  0  0  0  0  0  0
    0.5110   20.2730   -7.4460 O   0  0  0  0  0  0  0  0  0  0  0  0
    0.0530   18.5720   -8.7860 O   0  0  0  0  0  0  0  0  0  0  0  0
  1  2  1  0
  2  3  2  0
  2  4  1  0
  4  5  1  0
  3  6  1  0
  4  7  1  0
  6  7  2  0
  5  8  1  0
  8  9  1  0
  9 10  1  0
 10 11  1  0
 11 12  1  0
 11 13  1  0
 11 14  1  0
 12 15  1  0
 15 16  1  0
 15 17  1  0
 15 18  1  0
M  CHG  2  14  -1  17  -1
M  END
>  <%Rank>  (749) 
57.099237

>  <N_hits>  (749) 
2

>  <submitter_name>  (749) 
nan

>  <original SMILES>  (749) 
nan

>  <∆G_unbound>  (749) 
0.465827

>  <∆G_bound>  (749) 
-7.685187

>  <regarded>  (749) 
mArh-x0910_0_A_α,5CMS_0_N_β

>  <ref_pdb>  (749) 
nan

>  <smiles>  (749) 
Nc1nncn1CCCO[PH]([O-])(O)O[PH]([O-])(O)O

>  <submitter_email>  (749) 
nan

>  <disregarded>  (749) 


>  <LE>  (749) 
-0.452834

>  <submitter_institution>  (749) 
nan

>  <ref_mols>  (749) 
mArh-x0910_0_A,5CMS_0_N

>  <N_constrained_atoms>  (749) 
15.0

>  <ref_url>  (749) 
nan

>  <method>  (749) 
nan

>  <comRMSD>  (749) 
0.781851

>  <N_unconstrained_atoms>  (749) 
3.0

>  <∆∆G>  (749) 
-8.151014

>  <runtime>  (749) 
30.604044

>  <generation_date>  (749) 
nan

$$$$
5CMS_0_C_β-5CMS_0_R_β
     RDKit          3D

  9  8  0  0  0  0  0  0  0  0999 V2000
   -1.7820   20.4130   -7.9300 O   0  0  0  0  0  0  0  0  0  0  0  0
   -0.3000   19.7790   -7.9840 P   0  0  0  0  0  0  0  0  0  0  0  0
   -0.3520   18.8160   -6.8270 O   0  0  0  0  0  0  0  0  0  0  0  0
    1.0000   20.5980   -7.3970 O   0  0  0  0  0  0  0  0  0  0  0  0
   -0.0080   18.4780   -8.9780 O   0  0  0  0  0  0  0  0  0  0  0  0
   -1.7000   18.2890   -6.0800 P   0  0  0  0  0  0  0  0  0  0  0  0
   -0.9940   17.0970   -5.4540 O   0  0  0  0  0  0  0  0  0  0  0  0
   -2.7660   17.2830   -6.7830 O   0  0  0  0  0  0  0  0  0  0  0  0
   -2.0830   19.0350   -4.6590 O   0  0  0  0  0  0  0  0  0  0  0  0
  1  2  1  0
  2  3  1  0
  2  4  1  0
  2  5  1  0
  3  6  1  0
  6  7  1  0
  6  8  1  0
  6  9  1  0
M  CHG  2   4  -1   8  -1
M  END
>  <%Rank>  (750) 
57.175573

>  <N_hits>  (750) 
2

>  <submitter_name>  (750) 
nan

>  <original SMILES>  (750) 
nan

>  <∆G_unbound>  (750) 
0.654534

>  <∆G_bound>  (750) 
-5.539596

>  <regarded>  (750) 
5CMS_0_C_β,5CMS_0_R_β

>  <ref_pdb>  (750) 
nan

>  <smiles>  (750) 
[O-][PH](O)(O)O[PH]([O-])(O)O

>  <submitter_email>  (750) 
nan

>  <disregarded>  (750) 


>  <LE>  (750) 
-0.688237

>  <submitter_institution>  (750) 
nan

>  <ref_mols>  (750) 
5CMS_0_C,5CMS_0_R

>  <N_constrained_atoms>  (750) 
9.0

>  <ref_url>  (750) 
nan

>  <method>  (750) 
nan

>  <comRMSD>  (750) 
0.823359

>  <N_unconstrained_atoms>  (750) 
0.0

>  <∆∆G>  (750) 
-6.19413

>  <runtime>  (750) 
28.806785

>  <generation_date>  (750) 
nan

$$$$
mArh-5lw0_B_1_B_β-6MEA_0_A_δ
     RDKit          3D

 21 22  0  0  0  0  0  0  0  0999 V2000
   -1.5640   20.2950   -8.5770 O   0  0  0  0  0  0  0  0  0  0  0  0
   -0.5180   19.5060   -7.6910 P   0  0  0  0  0  0  0  0  0  0  0  0
   -1.2790   19.0840   -6.3370 O   0  0  0  0  0  0  0  0  0  0  0  0
    0.7080   20.3140   -7.5460 O   0  0  0  0  0  0  0  0  0  0  0  0
   -0.2710   18.2540   -8.6300 O   0  0  0  0  0  0  0  0  0  0  0  0
   -1.8000   17.6220   -6.0280 P   0  0  2  0  0  0  0  0  0  0  0  0
   -0.4360   16.8060   -5.9200 O   0  0  0  0  0  0  0  0  0  0  0  0
   -2.7620   17.0900   -7.0030 O   0  0  0  0  0  0  0  0  0  0  0  0
   -2.2900   17.3710   -4.5640 O   0  0  0  0  0  0  0  0  0  0  0  0
   -2.1230   15.9900   -4.2540 C   0  0  0  0  0  0  0  0  0  0  0  0
   -3.3120   15.3800   -3.5270 C   0  0  0  0  0  0  0  0  0  0  0  0
   -3.0330   14.5540   -2.2730 C   0  0  1  0  0  0  0  0  0  0  0  0
   -1.6240   14.1130   -2.0990 N   0  0  0  0  0  0  0  0  0  0  0  0
   -3.4480   15.2300   -1.0530 N   0  0  0  0  0  0  0  0  0  0  0  0
   -1.2960   14.4810   -0.7390 C   0  0  1  0  0  0  0  0  0  0  0  0
   -2.6540   14.5030   -0.0890 C   0  0  1  0  0  0  0  0  0  0  0  0
   -0.4120   13.5660   -0.0950 N   0  0  0  0  0  0  0  0  0  0  0  0
   -2.4060   15.1280    1.2420 C   0  0  1  0  0  0  0  0  0  0  0  0
   -3.6210   15.3330    2.0040 N   0  0  0  0  0  0  0  0  0  0  0  0
   -0.2600   14.0300    1.2850 C   0  0  0  0  0  0  0  0  0  0  0  0
   -1.5400   14.2530    1.9290 N   0  0  0  0  0  0  0  0  0  0  0  0
  1  2  1  0
  2  3  1  0
  2  4  2  0
  2  5  1  0
  3  6  1  0
  6  7  1  1
  6  8  2  0
  6  9  1  0
  9 10  1  0
 10 11  1  0
 12 11  1  6
 12 13  1  0
 12 14  1  0
 15 13  1  6
 16 14  1  6
 15 16  1  0
 15 17  1  0
 16 18  1  0
 18 19  1  1
 17 20  1  0
 18 21  1  0
 20 21  1  0
M  END
>  <%Rank>  (751) 
57.251908

>  <N_hits>  (751) 
2

>  <submitter_name>  (751) 
nan

>  <original SMILES>  (751) 
nan

>  <∆G_unbound>  (751) 
4.831508

>  <∆G_bound>  (751) 
-6.545616

>  <regarded>  (751) 
mArh-5lw0_B_1_B_β,6MEA_0_A_δ

>  <ref_pdb>  (751) 
nan

>  <smiles>  (751) 
NC1NCNC2NC(CCOP(=O)(O)OP(=O)(O)O)NC12

>  <submitter_email>  (751) 
nan

>  <disregarded>  (751) 


>  <LE>  (751) 
-0.541768

>  <submitter_institution>  (751) 
nan

>  <ref_mols>  (751) 
mArh-5lw0_B_1_B,6MEA_0_A

>  <N_constrained_atoms>  (751) 
19.0

>  <ref_url>  (751) 
nan

>  <method>  (751) 
nan

>  <comRMSD>  (751) 
0.962889

>  <N_unconstrained_atoms>  (751) 
2.0

>  <∆∆G>  (751) 
-11.377125

>  <runtime>  (751) 
35.273869

>  <generation_date>  (751) 
nan

$$$$
mArh-x0905_0_A_α-mArh-x0685_0_A_α
     RDKit          3D

 12 12  0  0  0  0  0  0  0  0999 V2000
   -7.2890   15.1790   -0.7410 O   0  0  0  0  0  0  0  0  0  0  0  0
   -5.9690   14.6990   -0.5390 C   0  0  2  0  0  0  0  0  0  0  0  0
   -5.5650   15.0180    0.8420 N   0  0  0  0  0  0  0  0  0  0  0  0
   -5.0270   15.3510   -1.5400 C   0  0  0  0  0  0  0  0  0  0  0  0
   -6.1640   14.2370    1.8790 N   0  0  0  0  0  0  0  0  0  0  0  0
   -4.2610   15.4360    1.0980 C   0  0  0  0  0  0  0  0  0  0  0  0
   -3.5810   14.9700   -1.2150 C   0  0  2  0  0  0  0  0  0  0  0  0
   -7.3750   14.7810    2.5050 C   0  0  0  0  0  0  0  0  0  0  0  0
   -3.2790   15.4400    0.1800 C   0  0  0  0  0  0  0  0  0  0  0  0
   -2.5800   15.4500   -2.2840 C   0  0  0  0  0  0  0  0  0  0  0  0
   -8.1450   13.6230    3.1230 C   0  0  0  0  0  0  0  0  0  0  0  0
   -2.9460   15.0540   -3.6400 N   0  0  0  0  0  0  0  0  0  0  0  0
  2  1  1  6
  2  3  1  0
  2  4  1  0
  3  5  1  0
  3  6  1  0
  4  7  1  0
  5  8  1  0
  6  9  2  0
  7  9  1  0
  7 10  1  6
  8 11  1  0
 10 12  1  0
M  END
>  <%Rank>  (752) 
57.328244

>  <N_hits>  (752) 
2

>  <submitter_name>  (752) 
nan

>  <original SMILES>  (752) 
nan

>  <∆G_unbound>  (752) 
0.331842

>  <∆G_bound>  (752) 
-3.455738

>  <regarded>  (752) 
mArh-x0905_0_A_α,mArh-x0685_0_A_α

>  <ref_pdb>  (752) 
nan

>  <smiles>  (752) 
CCNN1C=CC(CN)CC1O

>  <submitter_email>  (752) 
nan

>  <disregarded>  (752) 


>  <LE>  (752) 
-0.315632

>  <submitter_institution>  (752) 
nan

>  <ref_mols>  (752) 
mArh-x0905_0_A,mArh-x0685_0_A

>  <N_constrained_atoms>  (752) 
11.0

>  <ref_url>  (752) 
nan

>  <method>  (752) 
nan

>  <comRMSD>  (752) 
0.65898

>  <N_unconstrained_atoms>  (752) 
1.0

>  <∆∆G>  (752) 
-3.78758

>  <runtime>  (752) 
27.762231

>  <generation_date>  (752) 
nan

$$$$
mArh-EU0906_0_A_α-mArh-6woj_A_0_A_β
     RDKit          3D

 21 21  0  0  0  0  0  0  0  0999 V2000
    1.1630   11.1580   -9.7770 N   0  0  0  0  0  0  0  0  0  0  0  0
    0.4000   10.5230   -8.8790 C   0  0  0  0  0  0  0  0  0  0  0  0
    0.1290    9.1970   -8.9680 C   0  0  0  0  0  0  0  0  0  0  0  0
   -0.2870   10.9840   -7.6820 C   0  0  0  0  0  0  0  0  0  0  0  0
   -0.3980   12.3370   -6.9940 C   0  0  0  0  0  0  0  0  0  0  0  0
   -0.6610    8.9350   -7.9030 N   0  0  0  0  0  0  0  0  0  0  0  0
   -0.9320    9.9790   -7.1240 N   0  0  0  0  0  0  0  0  0  0  0  0
   -1.2180    7.6780   -7.5260 C   0  0  0  0  0  0  0  0  0  0  0  0
   -0.3210   12.5790   -5.4690 C   0  0  0  0  0  0  0  0  0  0  0  0
   -0.6220    7.2650   -6.2030 C   0  0  0  0  0  0  0  0  0  0  0  0
   -1.0170   13.8940   -4.9510 C   0  0  0  0  0  0  0  0  0  0  0  0
   -0.3440   15.3020   -5.1240 C   0  0  0  0  0  0  0  0  0  0  0  0
   -1.4040   16.2370   -5.4780 O   0  0  0  0  0  0  0  0  0  0  0  0
   -1.3460   17.8600   -5.7040 P   0  0  0  0  0  0  0  0  0  0  0  0
    0.0050   18.3430   -6.4090 O   0  0  0  0  0  0  0  0  0  0  0  0
   -1.6870   18.7090   -4.5290 O   0  0  0  0  0  0  0  0  0  0  0  0
   -2.4190   18.0020   -6.8920 O   0  0  0  0  0  0  0  0  0  0  0  0
    0.0040   19.4990   -7.5320 P   0  0  0  0  0  0  0  0  0  0  0  0
   -1.4910   20.0430   -7.6720 O   0  0  0  0  0  0  0  0  0  0  0  0
    1.0330   20.5800   -7.4450 O   0  0  0  0  0  0  0  0  0  0  0  0
    0.1440   18.6200   -8.8470 O   0  0  0  0  0  0  0  0  0  0  0  0
  1  2  1  0
  2  3  2  0
  2  4  1  0
  4  5  1  0
  3  6  1  0
  4  7  2  0
  6  7  1  0
  6  8  1  0
  5  9  1  0
  8 10  1  0
  9 11  1  0
 11 12  1  0
 12 13  1  0
 13 14  1  0
 14 15  1  0
 14 16  2  0
 14 17  1  0
 15 18  1  0
 18 19  1  0
 18 20  2  0
 18 21  1  0
M  END
>  <%Rank>  (753) 
57.40458

>  <N_hits>  (753) 
2

>  <submitter_name>  (753) 
nan

>  <original SMILES>  (753) 
nan

>  <∆G_unbound>  (753) 
0.474816

>  <∆G_bound>  (753) 
-11.209017

>  <regarded>  (753) 
mArh-EU0906_0_A_α,mArh-6woj_A_0_A_β

>  <ref_pdb>  (753) 
nan

>  <smiles>  (753) 
CCn1cc(N)c(CCCCOP(=O)(O)OP(=O)(O)O)n1

>  <submitter_email>  (753) 
nan

>  <disregarded>  (753) 


>  <LE>  (753) 
-0.556373

>  <submitter_institution>  (753) 
nan

>  <ref_mols>  (753) 
mArh-EU0906_0_A,mArh-6woj_A_0_A

>  <N_constrained_atoms>  (753) 
17.0

>  <ref_url>  (753) 
nan

>  <method>  (753) 
nan

>  <comRMSD>  (753) 
0.864534

>  <N_unconstrained_atoms>  (753) 
4.0

>  <∆∆G>  (753) 
-11.683833

>  <runtime>  (753) 
64.350035

>  <generation_date>  (753) 
nan

$$$$
mArh-EU0144_0_A_α-6MEA_0_B_δ
     RDKit          3D

 18 20  0  0  0  0  0  0  0  0999 V2000
   -8.6170   14.5280    1.0160 C   0  0  0  0  0  0  0  0  0  0  0  0
   -7.2410   14.6320    0.4960 C   0  0  0  0  0  0  0  0  0  0  0  0
   -6.8140   14.5590   -0.7360 N   0  0  0  0  0  0  0  0  0  0  0  0
   -6.2650   14.8340    1.4240 O   0  0  0  0  0  0  0  0  0  0  0  0
   -5.0920   14.9000    0.7250 C   0  0  0  0  0  0  0  0  0  0  0  0
   -5.4540   14.7300   -0.6140 C   0  0  0  0  0  0  0  0  0  0  0  0
   -3.9620   15.0960    1.4720 N   0  0  0  0  0  0  0  0  0  0  0  0
   -4.6460   14.7080   -1.7870 C   0  0  0  0  0  0  0  0  0  0  0  0
   -4.0180   14.6460   -2.7640 N   0  0  0  0  0  0  0  0  0  0  0  0
   -2.5740   14.9860    0.9890 C   0  0  2  0  0  0  0  0  0  0  0  0
   -2.5720   14.7570   -0.5260 C   0  0  2  0  0  0  0  0  0  0  0  0
   -1.5970   14.1250    1.6670 N   0  0  0  0  0  0  0  0  0  0  0  0
   -1.2650   14.0640   -0.8600 C   0  0  1  0  0  0  0  0  0  0  0  0
   -2.5920   15.9280   -1.4060 N   0  0  0  0  0  0  0  0  0  0  0  0
   -0.2200   14.2080    1.2120 C   0  0  0  0  0  0  0  0  0  0  0  0
   -1.1900   14.2440   -2.2880 N   0  0  0  0  0  0  0  0  0  0  0  0
   -1.6840   15.5940   -2.5010 C   0  0  0  0  0  0  0  0  0  0  0  0
   -0.1410   14.6140   -0.1760 N   0  0  0  0  0  0  0  0  0  0  0  0
  1  2  1  0
  2  3  2  0
  2  4  1  0
  4  5  1  0
  3  6  1  0
  5  6  2  0
  5  7  1  0
  6  8  1  0
  8  9  3  0
 10  7  1  1
 10 11  1  0
 10 12  1  0
 11 13  1  0
 11 14  1  6
 12 15  1  0
 13 16  1  6
 14 17  1  0
 16 17  1  0
 13 18  1  0
 15 18  1  0
M  END
>  <%Rank>  (754) 
57.480916

>  <N_hits>  (754) 
2

>  <submitter_name>  (754) 
nan

>  <original SMILES>  (754) 
nan

>  <∆G_unbound>  (754) 
1.008029

>  <∆G_bound>  (754) 
1.002109

>  <regarded>  (754) 
mArh-EU0144_0_A_α,6MEA_0_B_δ

>  <ref_pdb>  (754) 
nan

>  <smiles>  (754) 
Cc1nc(C#N)c(NC2NCNC3NCNC32)o1

>  <submitter_email>  (754) 
nan

>  <disregarded>  (754) 


>  <LE>  (754) 
-0.000329

>  <submitter_institution>  (754) 
nan

>  <ref_mols>  (754) 
mArh-EU0144_0_A,6MEA_0_B

>  <N_constrained_atoms>  (754) 
18.0

>  <ref_url>  (754) 
nan

>  <method>  (754) 
nan

>  <comRMSD>  (754) 
0.726092

>  <N_unconstrained_atoms>  (754) 
0.0

>  <∆∆G>  (754) 
-0.00592

>  <runtime>  (754) 
33.625268

>  <generation_date>  (754) 
nan

$$$$
mArh-x0216_0_A_α-mArh-x0729_1_B_α
     RDKit          3D

 19 19  0  0  0  0  0  0  0  0999 V2000
   17.8250   28.7770    6.3770 N   0  0  0  0  0  0  0  0  0  0  0  0
   17.1810   29.7420    7.2680 C   0  0  0  0  0  0  0  0  0  0  0  0
   15.6840   29.6130    6.9900 C   0  0  0  0  0  0  0  0  0  0  0  0
   19.2010   28.3550    6.5960 C   0  0  1  0  0  0  0  0  0  0  0  0
   19.3770   27.7020    7.9360 N   0  0  0  0  0  0  0  0  0  0  0  0
   19.6580   27.5710    5.4130 N   0  0  0  0  0  0  0  0  0  0  0  0
   17.5950   31.2020    7.0530 C   0  0  0  0  0  0  0  0  0  0  0  0
   19.1280   27.6190    4.2050 C   0  0  0  0  0  0  0  0  0  0  0  0
   19.5300   28.7260    8.9640 O   0  0  0  0  0  0  0  0  0  0  0  0
   18.1940   26.9270    8.3060 O   0  0  0  0  0  0  0  0  0  0  0  0
   21.0640   27.1830    5.3000 C   0  0  1  0  0  0  0  0  0  0  0  0
   18.8430   27.5600    3.1000 N   0  0  0  0  0  0  0  0  0  0  0  0
   22.1160   27.4920    6.3310 C   0  0  0  0  0  0  0  0  0  0  0  0
   21.2390   25.7460    4.8510 C   0  0  2  0  0  0  0  0  0  0  0  0
   21.0000   24.6340    5.8580 C   0  0  0  0  0  0  0  0  0  0  0  0
   23.3530   27.2860    5.4440 C   0  0  0  0  0  0  0  0  0  0  0  0
   22.9410   25.9580    4.2900 S   0  0  0  0  0  0  0  0  0  0  0  0
   22.8840   26.5130    2.9390 O   0  0  0  0  0  0  0  0  0  0  0  0
   23.7540   24.8100    4.6170 O   0  0  0  0  0  0  0  0  0  0  0  0
  1  2  1  0
  2  3  1  0
  4  1  1  6
  4  5  1  0
  4  6  1  0
  2  7  1  0
  6  8  1  0
  5  9  1  0
  5 10  1  0
 11  6  1  1
  8 12  3  0
 11 13  1  0
 11 14  1  0
 14 15  1  1
 13 16  1  0
 14 17  1  0
 17 16  1  0
 17 18  2  0
 17 19  2  0
M  END
>  <%Rank>  (755) 
57.557252

>  <N_hits>  (755) 
2

>  <submitter_name>  (755) 
nan

>  <original SMILES>  (755) 
nan

>  <∆G_unbound>  (755) 
0.942404

>  <∆G_bound>  (755) 
-2.448892

>  <regarded>  (755) 
mArh-x0216_0_A_α,mArh-x0729_1_B_α

>  <ref_pdb>  (755) 
nan

>  <smiles>  (755) 
CC(C)NC(N(O)O)N(C#N)C1CCS(=O)(=O)C1C

>  <submitter_email>  (755) 
nan

>  <disregarded>  (755) 


>  <LE>  (755) 
-0.178489

>  <submitter_institution>  (755) 
nan

>  <ref_mols>  (755) 
mArh-x0216_0_A,mArh-x0729_1_B

>  <N_constrained_atoms>  (755) 
19.0

>  <ref_url>  (755) 
nan

>  <method>  (755) 
nan

>  <comRMSD>  (755) 
0.835439

>  <N_unconstrained_atoms>  (755) 
0.0

>  <∆∆G>  (755) 
-3.391297

>  <runtime>  (755) 
25.472342

>  <generation_date>  (755) 
nan

$$$$
mArh-6woj_C_0_C_α-mArh-EU0293_0_A_α
     RDKit          3D

 25 27  0  0  0  0  0  0  0  0999 V2000
   -1.3530   22.0860   -7.9810 C   0  0  0  0  0  0  0  0  0  0  0  0
   -2.8300   22.2160   -8.3460 C   0  0  1  0  0  0  0  0  0  0  0  0
   -3.4440   21.0820   -7.7880 O   0  0  0  0  0  0  0  0  0  0  0  0
   -3.5040   23.4150   -7.6690 C   0  0  1  0  0  0  0  0  0  0  0  0
   -4.5630   23.9370   -8.5030 O   0  0  0  0  0  0  0  0  0  0  0  0
   -3.2560   21.4150   -6.4450 C   0  0  1  0  0  0  0  0  0  0  0  0
   -4.0710   22.7590   -6.3850 C   0  0  2  0  0  0  0  0  0  0  0  0
   -3.4560   20.1990   -5.6860 O   0  0  0  0  0  0  0  0  0  0  0  0
   -5.5010   22.7410   -6.4410 O   0  0  0  0  0  0  0  0  0  0  0  0
   -2.6050   19.0900   -6.2600 C   0  0  0  0  0  0  0  0  0  0  0  0
   -2.0280   17.9520   -5.3060 C   0  0  0  0  0  0  0  0  0  0  0  0
   -2.7470   16.5140   -5.2190 C   0  0  0  0  0  0  0  0  0  0  0  0
   -2.7680   15.8740   -3.7740 C   0  0  0  0  0  0  0  0  0  0  0  0
   -3.6980   14.7360   -3.2520 C   0  0  0  0  0  0  0  0  0  0  0  0
   -3.7850   14.4810   -1.6670 C   0  0  1  0  0  0  0  0  0  0  0  0
   -2.5320   14.5280   -0.7910 C   0  0  0  0  0  0  0  0  0  0  0  0
   -4.9130   15.1920   -1.0920 O   0  0  0  0  0  0  0  0  0  0  0  0
   -2.6400   14.6260    0.6000 C   0  0  0  0  0  0  0  0  0  0  0  0
   -1.2360   14.4580   -1.3090 C   0  0  0  0  0  0  0  0  0  0  0  0
   -4.9180   15.5010    0.3220 C   0  0  0  0  0  0  0  0  0  0  0  0
   -0.1330   14.4780   -0.4530 C   0  0  0  0  0  0  0  0  0  0  0  0
   -1.6020   14.6580    1.4740 N   0  0  0  0  0  0  0  0  0  0  0  0
   -3.9890   14.6940    1.1990 C   0  0  0  0  0  0  0  0  0  0  0  0
    1.1660   14.3910   -0.9520 N   0  0  0  0  0  0  0  0  0  0  0  0
   -0.3820   14.5820    0.9170 C   0  0  0  0  0  0  0  0  0  0  0  0
  2  1  1  1
  2  3  1  0
  2  4  1  0
  4  5  1  6
  3  6  1  0
  4  7  1  0
  6  7  1  0
  6  8  1  1
  7  9  1  6
  8 10  1  0
 10 11  1  0
 11 12  1  0
 12 13  1  0
 13 14  1  0
 15 14  1  6
 15 16  1  0
 15 17  1  0
 16 18  2  0
 16 19  1  0
 17 20  1  0
 19 21  2  0
 18 22  1  0
 18 23  1  0
 20 23  1  0
 21 24  1  0
 21 25  1  0
 22 25  2  0
M  END
>  <%Rank>  (756) 
57.633588

>  <N_hits>  (756) 
2

>  <submitter_name>  (756) 
nan

>  <original SMILES>  (756) 
nan

>  <∆G_unbound>  (756) 
0.090348

>  <∆G_bound>  (756) 
-13.316128

>  <regarded>  (756) 
mArh-6woj_C_0_C_α,mArh-EU0293_0_A_α

>  <ref_pdb>  (756) 
nan

>  <smiles>  (756) 
CC1OC(OCCCCCC2OCCc3ncc(N)cc32)C(O)C1O

>  <submitter_email>  (756) 
nan

>  <disregarded>  (756) 


>  <LE>  (756) 
-0.536259

>  <submitter_institution>  (756) 
nan

>  <ref_mols>  (756) 
mArh-6woj_C_0_C,mArh-EU0293_0_A

>  <N_constrained_atoms>  (756) 
20.0

>  <ref_url>  (756) 
nan

>  <method>  (756) 
nan

>  <comRMSD>  (756) 
0.90897

>  <N_unconstrained_atoms>  (756) 
5.0

>  <∆∆G>  (756) 
-13.406476

>  <runtime>  (756) 
30.509151

>  <generation_date>  (756) 
nan

$$$$
5CMS_0_F_β-mArh-5cb5_L_0_L_α
     RDKit          3D

 17 17  0  0  0  0  0  0  0  0999 V2000
   -1.8790   21.1400   -9.0990 O   0  0  0  0  0  0  0  0  0  0  0  0
   -0.8750   20.3760   -7.9530 P   0  0  0  0  0  0  0  0  0  0  0  0
   -1.5680   19.7340   -6.6200 O   0  0  0  0  0  0  0  0  0  0  0  0
   -3.1670   21.6260   -8.7280 C   0  0  1  0  0  0  0  0  0  0  0  0
   -0.7160   21.7300   -7.2890 O   0  0  0  0  0  0  0  0  0  0  0  0
   -0.8800   19.0090   -8.6450 O   0  0  0  0  0  0  0  0  0  0  0  0
   -3.6040   21.1140   -7.5480 O   0  0  0  0  0  0  0  0  0  0  0  0
   -3.2340   23.1710   -8.5100 C   0  0  1  0  0  0  0  0  0  0  0  0
   -1.3590   18.2930   -6.1070 P   0  0  0  0  0  0  0  0  0  0  0  0
   -3.7990   23.7540   -9.6450 O   0  0  0  0  0  0  0  0  0  0  0  0
   -4.4610   21.9470   -6.8780 C   0  0  1  0  0  0  0  0  0  0  0  0
   -4.3160   23.3370   -7.4420 C   0  0  2  0  0  0  0  0  0  0  0  0
   -0.9990   16.8680   -5.6770 O   0  0  0  0  0  0  0  0  0  0  0  0
   -2.6490   17.7710   -6.9640 O   0  0  0  0  0  0  0  0  0  0  0  0
   -1.6310   18.7510   -4.5600 O   0  0  0  0  0  0  0  0  0  0  0  0
   -5.7810   21.5250   -6.7810 O   0  0  0  0  0  0  0  0  0  0  0  0
   -5.4270   23.7870   -8.1800 O   0  0  0  0  0  0  0  0  0  0  0  0
  1  2  1  0
  2  3  1  0
  4  1  1  1
  2  5  1  0
  2  6  1  0
  4  7  1  0
  4  8  1  0
  3  9  1  0
  8 10  1  6
  7 11  1  0
  8 12  1  0
 11 12  1  0
  9 13  1  0
  9 14  1  0
  9 15  1  0
 11 16  1  6
 12 17  1  6
M  CHG  2   5  -1  14  -1
M  END
>  <%Rank>  (757) 
57.709924

>  <N_hits>  (757) 
2

>  <submitter_name>  (757) 
nan

>  <original SMILES>  (757) 
nan

>  <∆G_unbound>  (757) 
0.972863

>  <∆G_bound>  (757) 
-7.005058

>  <regarded>  (757) 
5CMS_0_F_β,mArh-5cb5_L_0_L_α

>  <ref_pdb>  (757) 
nan

>  <smiles>  (757) 
[O-][PH](O)(O)O[PH]([O-])(O)OC1OC(O)C(O)C1O

>  <submitter_email>  (757) 
nan

>  <disregarded>  (757) 


>  <LE>  (757) 
-0.469289

>  <submitter_institution>  (757) 
nan

>  <ref_mols>  (757) 
5CMS_0_F,mArh-5cb5_L_0_L

>  <N_constrained_atoms>  (757) 
17.0

>  <ref_url>  (757) 
nan

>  <method>  (757) 
nan

>  <comRMSD>  (757) 
0.940798

>  <N_unconstrained_atoms>  (757) 
0.0

>  <∆∆G>  (757) 
-7.977921

>  <runtime>  (757) 
33.54122

>  <generation_date>  (757) 
nan

$$$$
mArh-x0918_0_B_α-4IQY_0_A_β
     RDKit          3D

 23 23  0  0  0  0  0  0  0  0999 V2000
   -3.2390   29.6390  -14.3650 N   0  0  0  0  0  0  0  0  0  0  0  0
   -4.5110   29.3670  -13.7780 C   0  0  0  0  0  0  0  0  0  0  0  0
   -4.6870   28.3440  -12.8840 C   0  0  0  0  0  0  0  0  0  0  0  0
   -5.5820   30.1660  -14.1410 C   0  0  0  0  0  0  0  0  0  0  0  0
   -6.8180   29.9260  -13.5890 C   0  0  0  0  0  0  0  0  0  0  0  0
   -5.9510   28.1170  -12.3540 C   0  0  0  0  0  0  0  0  0  0  0  0
   -6.2590   27.0040  -11.3990 C   0  0  0  0  0  0  0  0  0  0  0  0
   -6.9430   28.9180  -12.7260 N   0  0  0  0  0  0  0  0  0  0  0  0
   -5.3680   25.7940  -11.5690 C   0  0  0  0  0  0  0  0  0  0  0  0
   -6.0120   24.6080  -10.7820 C   0  0  0  0  0  0  0  0  0  0  0  0
   -5.0780   23.4700  -10.6390 C   0  0  0  0  0  0  0  0  0  0  0  0
   -4.2200   23.2510   -9.4750 C   0  0  0  0  0  0  0  0  0  0  0  0
   -3.5910   21.9580   -9.2250 C   0  0  0  0  0  0  0  0  0  0  0  0
   -2.4250   21.7970   -8.3370 C   0  0  0  0  0  0  0  0  0  0  0  0
   -1.6750   20.7370   -8.8580 O   0  0  0  0  0  0  0  0  0  0  0  0
   -0.7020   20.1330   -7.6530 P   0  0  0  0  0  0  0  0  0  0  0  0
   -1.3880   19.5370   -6.3110 O   0  0  0  0  0  0  0  0  0  0  0  0
    0.9010   20.5130   -7.6490 O   0  0  0  0  0  0  0  0  0  0  0  0
   -0.4140   18.8480   -8.4270 O   0  0  0  0  0  0  0  0  0  0  0  0
   -1.6030   17.8980   -6.1750 P   0  0  0  0  0  0  0  0  0  0  0  0
   -0.3720   16.9650   -5.5590 O   0  0  0  0  0  0  0  0  0  0  0  0
   -2.1230   18.1090   -4.7750 O   0  0  0  0  0  0  0  0  0  0  0  0
   -2.8750   17.2100   -6.8070 O   0  0  0  0  0  0  0  0  0  0  0  0
  1  2  1  0
  2  3  2  0
  2  4  1  0
  4  5  2  0
  3  6  1  0
  6  7  1  0
  5  8  1  0
  6  8  2  0
  7  9  1  0
  9 10  1  0
 10 11  1  0
 11 12  1  0
 12 13  1  0
 13 14  1  0
 14 15  1  0
 15 16  1  0
 16 17  1  0
 16 18  1  0
 16 19  1  0
 17 20  1  0
 20 21  1  0
 20 22  1  0
 20 23  1  0
M  CHG  2  18  -1  22  -1
M  END
>  <%Rank>  (758) 
57.78626

>  <N_hits>  (758) 
2

>  <submitter_name>  (758) 
nan

>  <original SMILES>  (758) 
nan

>  <∆G_unbound>  (758) 
0.940882

>  <∆G_bound>  (758) 
-11.050053

>  <regarded>  (758) 
mArh-x0918_0_B_α,4IQY_0_A_β

>  <ref_pdb>  (758) 
nan

>  <smiles>  (758) 
Nc1ccnc(CCCCCCCO[PH]([O-])(O)O[PH]([O-])(O)O)c1

>  <submitter_email>  (758) 
nan

>  <disregarded>  (758) 


>  <LE>  (758) 
-0.521345

>  <submitter_institution>  (758) 
nan

>  <ref_mols>  (758) 
mArh-x0918_0_B,4IQY_0_A

>  <N_constrained_atoms>  (758) 
16.0

>  <ref_url>  (758) 
nan

>  <method>  (758) 
nan

>  <comRMSD>  (758) 
0.72616

>  <N_unconstrained_atoms>  (758) 
7.0

>  <∆∆G>  (758) 
-11.990935

>  <runtime>  (758) 
45.98586

>  <generation_date>  (758) 
nan

$$$$
mArh-x0128_0_A_α-5CMS_0_J_β
     RDKit          3D

 29 30  0  0  0  0  0  0  0  0999 V2000
   -6.7660   14.4120    2.4260 N   0  0  0  0  0  0  0  0  0  0  0  0
   -7.7170   15.1950    3.0690 C   0  0  0  0  0  0  0  0  0  0  0  0
   -8.7210   15.6390    2.4880 O   0  0  0  0  0  0  0  0  0  0  0  0
   -6.0450   14.6550    1.2280 C   0  0  0  0  0  0  0  0  0  0  0  0
   -7.5110   15.4820    4.4630 N   0  0  0  0  0  0  0  0  0  0  0  0
   -6.6890   14.4850   -0.0220 C   0  0  0  0  0  0  0  0  0  0  0  0
   -4.7410   15.0390    1.1630 C   0  0  0  0  0  0  0  0  0  0  0  0
   -6.0670   14.6700   -1.2290 C   0  0  0  0  0  0  0  0  0  0  0  0
   -4.1070   15.2240   -0.0660 C   0  0  0  0  0  0  0  0  0  0  0  0
   -8.3760   16.1550    5.3310 C   0  0  0  0  0  0  0  0  0  0  0  0
   -4.7410   15.0390   -1.2600 C   0  0  0  0  0  0  0  0  0  0  0  0
   -9.0950   17.2840    4.9220 C   0  0  0  0  0  0  0  0  0  0  0  0
   -8.5960   15.7840    6.6320 C   0  0  0  0  0  0  0  0  0  0  0  0
   -3.9920   15.2290   -2.5400 C   0  0  0  0  0  0  0  0  0  0  0  0
   -9.9300   17.9620    5.7130 N   0  0  0  0  0  0  0  0  0  0  0  0
   -9.4710   16.4980    7.4620 C   0  0  0  0  0  0  0  0  0  0  0  0
   -4.6600   14.6460   -3.7690 C   0  0  0  0  0  0  0  0  0  0  0  0
  -10.1380   17.6000    6.9790 C   0  0  0  0  0  0  0  0  0  0  0  0
   -3.9440   15.0650   -5.0670 C   0  0  0  0  0  0  0  0  0  0  0  0
   -2.7890   15.9720   -4.7780 C   0  0  0  0  0  0  0  0  0  0  0  0
   -2.7810   17.0270   -5.7470 O   0  0  0  0  0  0  0  0  0  0  0  0
   -1.5290   17.9120   -5.8460 P   0  0  0  0  0  0  0  0  0  0  0  0
   -1.8430   18.4400   -7.2940 O   0  0  0  0  0  0  0  0  0  0  0  0
   -0.5400   16.5940   -5.5810 O   0  0  0  0  0  0  0  0  0  0  0  0
   -1.9540   18.8170   -4.6230 O   0  0  0  0  0  0  0  0  0  0  0  0
   -0.8220   19.4020   -7.9810 P   0  0  0  0  0  0  0  0  0  0  0  0
   -0.7510   20.5340   -6.9760 O   0  0  0  0  0  0  0  0  0  0  0  0
    0.7830   19.0770   -7.8850 O   0  0  0  0  0  0  0  0  0  0  0  0
   -1.4550   20.5260   -9.0100 O   0  0  0  0  0  0  0  0  0  0  0  0
  1  2  1  0
  2  3  2  0
  1  4  1  0
  2  5  1  0
  4  6  2  0
  4  7  1  0
  6  8  1  0
  7  9  2  0
  5 10  1  0
  8 11  2  0
  9 11  1  0
 10 12  2  0
 10 13  1  0
 11 14  1  0
 12 15  1  0
 13 16  2  0
 14 17  1  0
 15 18  2  0
 16 18  1  0
 17 19  1  0
 19 20  1  0
 20 21  1  0
 21 22  1  0
 22 23  1  0
 22 24  1  0
 22 25  1  0
 23 26  1  0
 26 27  1  0
 26 28  1  0
 26 29  1  0
M  CHG  2  25  -1  28  -1
M  END
>  <%Rank>  (759) 
57.862595

>  <N_hits>  (759) 
2

>  <submitter_name>  (759) 
nan

>  <original SMILES>  (759) 
nan

>  <∆G_unbound>  (759) 
0.339537

>  <∆G_bound>  (759) 
-10.418709

>  <regarded>  (759) 
mArh-x0128_0_A_α,5CMS_0_J_β

>  <ref_pdb>  (759) 
nan

>  <smiles>  (759) 
O=C(Nc1ccc(CCCCO[PH]([O-])(O)O[PH]([O-])(O)O)cc1)Nc1cccnc1

>  <submitter_email>  (759) 
nan

>  <disregarded>  (759) 


>  <LE>  (759) 
-0.370974

>  <submitter_institution>  (759) 
nan

>  <ref_mols>  (759) 
mArh-x0128_0_A,5CMS_0_J

>  <N_constrained_atoms>  (759) 
25.0

>  <ref_url>  (759) 
nan

>  <method>  (759) 
nan

>  <comRMSD>  (759) 
0.957093

>  <N_unconstrained_atoms>  (759) 
4.0

>  <∆∆G>  (759) 
-10.758247

>  <runtime>  (759) 
84.015553

>  <generation_date>  (759) 
nan

$$$$
mArh-x0371_0_A_β-mArh-x0895_0_A_α
     RDKit          3D

 11 12  0  0  0  0  0  0  0  0999 V2000
   -8.2240   14.3750    1.6210 C   0  0  0  0  0  0  0  0  0  0  0  0
   -7.0030   14.6040    0.8000 C   0  0  0  0  0  0  0  0  0  0  0  0
   -5.7590   14.5190    1.4110 N   0  0  0  0  0  0  0  0  0  0  0  0
   -7.0200   14.8930   -0.4740 N   0  0  0  0  0  0  0  0  0  0  0  0
   -4.9310   14.7620    0.4420 C   0  0  0  0  0  0  0  0  0  0  0  0
   -5.6950   14.9980   -0.7790 C   0  0  0  0  0  0  0  0  0  0  0  0
   -3.4290   14.8220    0.4140 C   0  0  0  0  0  0  0  0  0  0  0  0
   -5.0750   15.2540   -1.9250 C   0  0  0  0  0  0  0  0  0  0  0  0
   -2.7130   14.6680    1.4010 O   0  0  0  0  0  0  0  0  0  0  0  0
   -2.8480   15.0790   -0.9220 C   0  0  0  0  0  0  0  0  0  0  0  0
   -3.6340   15.2870   -1.9890 C   0  0  0  0  0  0  0  0  0  0  0  0
  1  2  1  0
  2  3  1  0
  2  4  2  0
  3  5  2  0
  4  6  1  0
  5  6  1  0
  5  7  1  0
  6  8  2  0
  7  9  2  0
  7 10  1  0
  8 11  1  0
 10 11  2  0
M  END
>  <%Rank>  (760) 
57.938931

>  <N_hits>  (760) 
2

>  <submitter_name>  (760) 
nan

>  <original SMILES>  (760) 
nan

>  <∆G_unbound>  (760) 
0.074402

>  <∆G_bound>  (760) 
-1.557791

>  <regarded>  (760) 
mArh-x0371_0_A_β,mArh-x0895_0_A_α

>  <ref_pdb>  (760) 
nan

>  <smiles>  (760) 
CC1=NC2=CC=CC(=O)C2=N1

>  <submitter_email>  (760) 
nan

>  <disregarded>  (760) 


>  <LE>  (760) 
-0.148381

>  <submitter_institution>  (760) 
nan

>  <ref_mols>  (760) 
mArh-x0371_0_A,mArh-x0895_0_A

>  <N_constrained_atoms>  (760) 
11.0

>  <ref_url>  (760) 
nan

>  <method>  (760) 
nan

>  <comRMSD>  (760) 
0.625703

>  <N_unconstrained_atoms>  (760) 
0.0

>  <∆∆G>  (760) 
-1.632193

>  <runtime>  (760) 
23.835808

>  <generation_date>  (760) 
nan

$$$$
mArh-5lw0_B_1_B_β-4IQY_0_A_α
     RDKit          3D

 19 19  0  0  0  0  0  0  0  0999 V2000
   -1.9210   19.4870   -7.8100 O   0  0  0  0  0  0  0  0  0  0  0  0
   -0.4160   19.1450   -7.7460 P   0  0  0  0  0  0  0  0  0  0  0  0
   -0.3820   18.2290   -6.4790 O   0  0  0  0  0  0  0  0  0  0  0  0
    0.3650   20.5950   -7.6970 N   0  0  0  0  0  0  0  0  0  0  0  0
   -0.0270   18.2970   -8.9830 O   0  0  0  0  0  0  0  0  0  0  0  0
   -1.6490   17.5130   -5.8210 P   0  0  0  0  0  0  0  0  0  0  0  0
   -0.5660   21.7150   -7.5520 C   0  0  0  0  0  0  0  0  0  0  0  0
   -1.0380   16.2110   -5.1300 O   0  0  0  0  0  0  0  0  0  0  0  0
   -2.7940   17.2200   -6.7410 O   0  0  0  0  0  0  0  0  0  0  0  0
   -1.9940   18.4730   -4.6180 O   0  0  0  0  0  0  0  0  0  0  0  0
   -1.8330   21.6940   -8.4280 C   0  0  0  0  0  0  0  0  0  0  0  0
   -3.1260   21.9690   -7.6680 C   0  0  2  0  0  0  0  0  0  0  0  0
   -4.2900   21.2550   -8.1400 O   0  0  0  0  0  0  0  0  0  0  0  0
   -3.6380   23.3970   -7.7290 C   0  0  1  0  0  0  0  0  0  0  0  0
   -4.1840   23.8460   -8.9750 O   0  0  0  0  0  0  0  0  0  0  0  0
   -5.3960   22.0360   -7.6450 C   0  0  2  0  0  0  0  0  0  0  0  0
   -4.7640   23.1040   -6.7850 C   0  0  2  0  0  0  0  0  0  0  0  0
   -6.3480   21.2650   -6.9290 O   0  0  0  0  0  0  0  0  0  0  0  0
   -5.6110   24.2110   -6.5140 O   0  0  0  0  0  0  0  0  0  0  0  0
  1  2  1  0
  2  3  1  0
  2  4  2  3
  2  5  1  0
  3  6  1  0
  4  7  1  0
  6  8  1  0
  6  9  2  0
  6 10  1  0
  7 11  1  0
 12 11  1  6
 12 13  1  0
 12 14  1  0
 14 15  1  6
 13 16  1  0
 14 17  1  0
 16 17  1  0
 16 18  1  1
 17 19  1  6
M  END
>  <%Rank>  (761) 
58.015267

>  <N_hits>  (761) 
2

>  <submitter_name>  (761) 
nan

>  <original SMILES>  (761) 
nan

>  <∆G_unbound>  (761) 
1.1668

>  <∆G_bound>  (761) 
-11.675078

>  <regarded>  (761) 
mArh-5lw0_B_1_B_β,4IQY_0_A_α

>  <ref_pdb>  (761) 
nan

>  <smiles>  (761) 
O=P(O)(O)OP(O)(O)=NCCC1OC(O)C(O)C1O

>  <submitter_email>  (761) 
nan

>  <disregarded>  (761) 


>  <LE>  (761) 
-0.675888

>  <submitter_institution>  (761) 
nan

>  <ref_mols>  (761) 
mArh-5lw0_B_1_B,4IQY_0_A

>  <N_constrained_atoms>  (761) 
18.0

>  <ref_url>  (761) 
nan

>  <method>  (761) 
nan

>  <comRMSD>  (761) 
1.040138

>  <N_unconstrained_atoms>  (761) 
1.0

>  <∆∆G>  (761) 
-12.841878

>  <runtime>  (761) 
36.260634

>  <generation_date>  (761) 
nan

$$$$
5LW0_1_B_γ-mArh-x0727_0_A_α
     RDKit          3D

 19 21  0  0  0  0  0  0  0  0999 V2000
   -0.5820   12.8670   -2.6130 N   0  0  0  0  0  0  0  0  0  0  0  0
    0.5290   12.4780   -3.1090 C   0  0  0  0  0  0  0  0  0  0  0  0
    1.4320   11.8720   -2.3780 O   0  0  0  0  0  0  0  0  0  0  0  0
   -1.2290   13.5690   -3.7210 C   0  0  1  0  0  0  0  0  0  0  0  0
    0.7720   12.7270   -4.5710 C   0  0  2  0  0  0  0  0  0  0  0  0
   -1.6530   14.9100   -3.1960 C   0  0  0  0  0  0  0  0  0  0  0  0
   -0.1290   13.9480   -4.7070 C   0  0  2  0  0  0  0  0  0  0  0  0
    0.4720   11.4940   -5.2910 N   0  0  0  0  0  0  0  0  0  0  0  0
    2.2210   13.1380   -4.8090 C   0  0  0  0  0  0  0  0  0  0  0  0
   -0.4160   15.6240   -3.0540 O   0  0  0  0  0  0  0  0  0  0  0  0
    0.4020   15.2850   -4.1710 C   0  0  2  0  0  0  0  0  0  0  0  0
    0.3280   16.4420   -5.1670 C   0  0  0  0  0  0  0  0  0  0  0  0
    0.5570   11.1970   -6.6210 C   0  0  0  0  0  0  0  0  0  0  0  0
    1.4080   11.6080   -7.3730 O   0  0  0  0  0  0  0  0  0  0  0  0
   -0.5420   10.2400   -7.0230 C   0  0  0  0  0  0  0  0  0  0  0  0
   -0.9480   10.1830   -8.4760 C   0  0  0  0  0  0  0  0  0  0  0  0
   -0.2930    8.7770   -6.7000 C   0  0  0  0  0  0  0  0  0  0  0  0
   -1.9470    9.0230   -8.4590 C   0  0  0  0  0  0  0  0  0  0  0  0
   -1.5540    8.1440   -7.2550 C   0  0  0  0  0  0  0  0  0  0  0  0
  1  2  2  0
  2  3  1  0
  1  4  1  0
  2  5  1  0
  4  6  1  1
  4  7  1  0
  5  7  1  0
  5  8  1  0
  5  9  1  1
  6 10  1  0
  7 11  1  1
 10 11  1  0
 11 12  1  6
  8 13  1  0
 13 14  2  0
 13 15  1  0
 15 16  1  0
 15 17  1  0
 16 18  1  0
 17 19  1  0
 18 19  1  0
M  END
>  <%Rank>  (762) 
58.091603

>  <N_hits>  (762) 
2

>  <submitter_name>  (762) 
nan

>  <original SMILES>  (762) 
nan

>  <∆G_unbound>  (762) 
1.359881

>  <∆G_bound>  (762) 
-4.528139

>  <regarded>  (762) 
5LW0_1_B_γ,mArh-x0727_0_A_α

>  <ref_pdb>  (762) 
nan

>  <smiles>  (762) 
CC1OCC2N=C(O)C(C)(NC(=O)C3CCCC3)C21

>  <submitter_email>  (762) 
nan

>  <disregarded>  (762) 


>  <LE>  (762) 
-0.309896

>  <submitter_institution>  (762) 
nan

>  <ref_mols>  (762) 
5LW0_1_B,mArh-x0727_0_A

>  <N_constrained_atoms>  (762) 
19.0

>  <ref_url>  (762) 
nan

>  <method>  (762) 
nan

>  <comRMSD>  (762) 
0.905189

>  <N_unconstrained_atoms>  (762) 
0.0

>  <∆∆G>  (762) 
-5.88802

>  <runtime>  (762) 
35.391765

>  <generation_date>  (762) 
nan

$$$$
mArh-5l9k_A_0_A_α-1HJZ_0_B_α
     RDKit          3D

 14 14  0  0  0  0  0  0  0  0999 V2000
   -2.3280   21.8020   -7.6080 C   0  0  2  0  0  0  0  0  0  0  0  0
   -1.8700   23.2360   -7.6660 C   0  0  0  0  0  0  0  0  0  0  0  0
   -0.8650   20.6810   -7.7320 S   0  0  0  0  0  0  0  0  0  0  0  0
   -3.5960   21.6740   -8.4970 C   0  0  1  0  0  0  0  0  0  0  0  0
    0.4800   21.5540   -7.7640 O   0  0  0  0  0  0  0  0  0  0  0  0
   -0.8780   19.7080   -8.9910 O   0  0  0  0  0  0  0  0  0  0  0  0
   -0.8260   19.8150   -6.3900 O   0  0  0  0  0  0  0  0  0  0  0  0
   -4.5230   20.7480   -7.8660 O   0  0  0  0  0  0  0  0  0  0  0  0
   -4.5560   22.8700   -8.6830 C   0  0  2  0  0  0  0  0  0  0  0  0
   -4.1860   24.0420   -9.3510 O   0  0  0  0  0  0  0  0  0  0  0  0
   -5.5250   21.5530   -7.1800 C   0  0  1  0  0  0  0  0  0  0  0  0
   -4.9820   22.9940   -7.2460 C   0  0  2  0  0  0  0  0  0  0  0  0
   -6.7660   21.3860   -7.8580 O   0  0  0  0  0  0  0  0  0  0  0  0
   -5.9690   24.0040   -6.9850 O   0  0  0  0  0  0  0  0  0  0  0  0
  1  2  1  6
  1  3  1  0
  1  4  1  0
  3  5  1  0
  3  6  1  0
  3  7  1  0
  4  8  1  1
  4  9  1  0
  9 10  1  1
  8 11  1  0
  9 12  1  0
 11 12  1  0
 11 13  1  6
 12 14  1  6
M  END
>  <%Rank>  (763) 
58.167939

>  <N_hits>  (763) 
2

>  <submitter_name>  (763) 
nan

>  <original SMILES>  (763) 
nan

>  <∆G_unbound>  (763) 
2.660647

>  <∆G_bound>  (763) 
-7.031938

>  <regarded>  (763) 
mArh-5l9k_A_0_A_α,1HJZ_0_B_α

>  <ref_pdb>  (763) 
nan

>  <smiles>  (763) 
CC(C1OC(O)C(O)C1O)S(O)(O)O

>  <submitter_email>  (763) 
nan

>  <disregarded>  (763) 


>  <LE>  (763) 
-0.692328

>  <submitter_institution>  (763) 
nan

>  <ref_mols>  (763) 
mArh-5l9k_A_0_A,1HJZ_0_B

>  <N_constrained_atoms>  (763) 
14.0

>  <ref_url>  (763) 
nan

>  <method>  (763) 
nan

>  <comRMSD>  (763) 
0.984083

>  <N_unconstrained_atoms>  (763) 
0.0

>  <∆∆G>  (763) 
-9.692586

>  <runtime>  (763) 
28.970263

>  <generation_date>  (763) 
nan

$$$$
mArh-x1012_0_A_α-5CMS_0_O_γ
     RDKit          3D

 14 14  0  0  0  0  0  0  0  0999 V2000
   -0.3230   18.2560   -4.7090 N   0  0  0  0  0  0  0  0  0  0  0  0
   -1.2160   17.2490   -4.7410 C   0  0  0  0  0  0  0  0  0  0  0  0
   -2.4010   17.5310   -4.8360 O   0  0  0  0  0  0  0  0  0  0  0  0
   -0.7150   15.9750   -4.6280 N   0  0  0  0  0  0  0  0  0  0  0  0
   -1.6570   14.8690   -4.7530 C   0  0  0  0  0  0  0  0  0  0  0  0
    0.7080   15.6610   -4.7480 C   0  0  0  0  0  0  0  0  0  0  0  0
   -1.2410   13.5940   -3.9960 C   0  0  1  0  0  0  0  0  0  0  0  0
    1.1950   14.5230   -3.8460 C   0  0  2  0  0  0  0  0  0  0  0  0
   -1.6760   12.4790   -4.7830 O   0  0  0  0  0  0  0  0  0  0  0  0
    2.4090   14.0130   -4.3840 O   0  0  0  0  0  0  0  0  0  0  0  0
    0.2570   13.3190   -3.8180 C   0  0  1  0  0  0  0  0  0  0  0  0
    0.4540   12.4940   -2.5610 C   0  0  0  0  0  0  0  0  0  0  0  0
    0.5510   11.1740   -2.8110 O   0  0  0  0  0  0  0  0  0  0  0  0
    0.5220   12.8750   -1.3980 O   0  0  0  0  0  0  0  0  0  0  0  0
  1  2  1  0
  2  3  2  0
  2  4  1  0
  4  5  1  0
  4  6  1  0
  5  7  1  0
  6  8  1  0
  7  9  1  6
  8 10  1  6
  7 11  1  0
  8 11  1  0
 11 12  1  1
 12 13  1  0
 12 14  2  0
M  END
>  <%Rank>  (764) 
58.244275

>  <N_hits>  (764) 
2

>  <submitter_name>  (764) 
nan

>  <original SMILES>  (764) 
nan

>  <∆G_unbound>  (764) 
0.73431

>  <∆G_bound>  (764) 
-3.535761

>  <regarded>  (764) 
mArh-x1012_0_A_α,5CMS_0_O_γ

>  <ref_pdb>  (764) 
nan

>  <smiles>  (764) 
NC(=O)N1CC(O)C(C(=O)O)C(O)C1

>  <submitter_email>  (764) 
nan

>  <disregarded>  (764) 


>  <LE>  (764) 
-0.305005

>  <submitter_institution>  (764) 
nan

>  <ref_mols>  (764) 
mArh-x1012_0_A,5CMS_0_O

>  <N_constrained_atoms>  (764) 
14.0

>  <ref_url>  (764) 
nan

>  <method>  (764) 
nan

>  <comRMSD>  (764) 
0.791278

>  <N_unconstrained_atoms>  (764) 
0.0

>  <∆∆G>  (764) 
-4.270071

>  <runtime>  (764) 
25.411937

>  <generation_date>  (764) 
nan

$$$$
5DUS_0_A_β-5MQX_0_A_δ
     RDKit          3D

 22 23  0  0  0  0  0  0  0  0999 V2000
   -1.5250   20.1030   -7.9310 O   0  0  0  0  0  0  0  0  0  0  0  0
   -0.1430   19.6720   -7.4950 P   0  0  0  0  0  0  0  0  0  0  0  0
   -0.4260   19.1330   -6.0380 O   0  0  0  0  0  0  0  0  0  0  0  0
    0.4570   21.1800   -7.7660 O   0  0  0  0  0  0  0  0  0  0  0  0
   -0.0470   18.5580   -8.7580 O   0  0  0  0  0  0  0  0  0  0  0  0
   -1.6670   18.1740   -5.6250 P   0  0  0  0  0  0  0  0  0  0  0  0
   -0.8820   16.8790   -5.5830 O   0  0  0  0  0  0  0  0  0  0  0  0
   -2.6530   17.4860   -6.7730 O   0  0  0  0  0  0  0  0  0  0  0  0
   -2.0680   17.9820   -4.1090 O   0  0  0  0  0  0  0  0  0  0  0  0
   -0.5920   16.2630   -4.3780 C   0  0  0  0  0  0  0  0  0  0  0  0
   -1.6990   15.4040   -3.7800 C   0  0  0  0  0  0  0  0  0  0  0  0
   -1.1520   14.7940   -2.4880 C   0  0  0  0  0  0  0  0  0  0  0  0
   -1.9240   13.7970   -1.7980 N   0  0  0  0  0  0  0  0  0  0  0  0
   -1.7700   13.8210   -0.4110 C   0  0  2  0  0  0  0  0  0  0  0  0
   -3.3540   13.7930   -1.9410 C   0  0  0  0  0  0  0  0  0  0  0  0
   -2.8140   14.8550   -0.1040 C   0  0  1  0  0  0  0  0  0  0  0  0
   -3.9340   14.1590   -0.6380 N   0  0  0  0  0  0  0  0  0  0  0  0
   -0.4660   14.0800    0.1060 N   0  0  0  0  0  0  0  0  0  0  0  0
   -0.6270   14.2930    1.5170 C   0  0  0  0  0  0  0  0  0  0  0  0
   -2.8960   15.1570    1.3170 C   0  0  1  0  0  0  0  0  0  0  0  0
   -3.5830   14.2180    2.1230 N   0  0  0  0  0  0  0  0  0  0  0  0
   -1.5300   15.3630    1.6920 N   0  0  0  0  0  0  0  0  0  0  0  0
  1  2  1  0
  2  3  1  0
  2  4  1  0
  2  5  1  0
  3  6  1  0
  6  7  1  0
  6  8  1  0
  6  9  1  0
  7 10  1  0
 10 11  1  0
 11 12  1  0
 12 13  1  0
 13 14  1  0
 13 15  1  0
 14 16  1  0
 15 17  1  0
 16 17  1  1
 14 18  1  6
 18 19  1  0
 16 20  1  0
 20 21  1  1
 19 22  1  0
 20 22  1  0
M  CHG  2   4  -1   8  -1
M  END
>  <%Rank>  (765) 
58.320611

>  <N_hits>  (765) 
2

>  <submitter_name>  (765) 
nan

>  <original SMILES>  (765) 
nan

>  <∆G_unbound>  (765) 
2.048405

>  <∆G_bound>  (765) 
-5.691558

>  <regarded>  (765) 
5DUS_0_A_β,5MQX_0_A_δ

>  <ref_pdb>  (765) 
nan

>  <smiles>  (765) 
NC1NCNC2C1NCN2CCCO[PH]([O-])(O)O[PH]([O-])(O)O

>  <submitter_email>  (765) 
nan

>  <disregarded>  (765) 


>  <LE>  (765) 
-0.351817

>  <submitter_institution>  (765) 
nan

>  <ref_mols>  (765) 
5DUS_0_A,5MQX_0_A

>  <N_constrained_atoms>  (765) 
19.0

>  <ref_url>  (765) 
nan

>  <method>  (765) 
nan

>  <comRMSD>  (765) 
0.851467

>  <N_unconstrained_atoms>  (765) 
3.0

>  <∆∆G>  (765) 
-7.739963

>  <runtime>  (765) 
36.778213

>  <generation_date>  (765) 
nan

$$$$
mArh-2fav_B_0_B_δ-mArh-5cb5_I_0_I_α
     RDKit          3D

 24 26  0  0  0  0  0  0  0  0999 V2000
   -4.1160   15.1900    1.1360 N   0  0  0  0  0  0  0  0  0  0  0  0
   -2.9760   14.4250    0.6680 C   0  0  1  0  0  0  0  0  0  0  0  0
   -2.7370   14.3600   -0.8740 C   0  0  2  0  0  0  0  0  0  0  0  0
   -1.8440   14.9980    1.3770 N   0  0  0  0  0  0  0  0  0  0  0  0
   -1.2730   14.6270   -1.0830 C   0  0  2  0  0  0  0  0  0  0  0  0
   -3.2460   15.2970   -1.9040 N   0  0  0  0  0  0  0  0  0  0  0  0
   -0.5910   14.2710    1.1730 C   0  0  0  0  0  0  0  0  0  0  0  0
   -1.1950   14.2680   -2.4800 N   0  0  0  0  0  0  0  0  0  0  0  0
   -2.3040   15.0480   -3.0560 C   0  0  2  0  0  0  0  0  0  0  0  0
   -0.4350   13.8440   -0.2190 N   0  0  0  0  0  0  0  0  0  0  0  0
   -1.7980   16.3820   -3.6380 C   0  0  0  0  0  0  0  0  0  0  0  0
   -2.1250   16.8780   -5.0760 C   0  0  0  0  0  0  0  0  0  0  0  0
   -1.6860   18.3560   -5.3370 C   0  0  0  0  0  0  0  0  0  0  0  0
   -2.5110   19.1330   -6.4030 C   0  0  0  0  0  0  0  0  0  0  0  0
   -3.0970   20.4990   -5.9290 C   0  0  0  0  0  0  0  0  0  0  0  0
   -4.5190   20.6040   -6.1930 O   0  0  0  0  0  0  0  0  0  0  0  0
   -4.9030   21.4350   -7.3030 C   0  0  2  0  0  0  0  0  0  0  0  0
   -4.2640   20.9640   -8.4720 O   0  0  0  0  0  0  0  0  0  0  0  0
   -4.4780   22.9060   -7.0950 C   0  0  2  0  0  0  0  0  0  0  0  0
   -5.6090   23.7940   -6.9360 O   0  0  0  0  0  0  0  0  0  0  0  0
   -3.2950   21.9130   -8.8950 C   0  0  1  0  0  0  0  0  0  0  0  0
   -3.8110   23.2590   -8.4310 C   0  0  1  0  0  0  0  0  0  0  0  0
   -1.9190   21.5710   -8.3450 C   0  0  0  0  0  0  0  0  0  0  0  0
   -4.7190   23.8290   -9.3730 O   0  0  0  0  0  0  0  0  0  0  0  0
  2  1  1  6
  2  3  1  0
  2  4  1  0
  3  5  1  0
  3  6  1  6
  4  7  1  0
  5  8  1  6
  6  9  1  0
  8  9  1  0
  5 10  1  0
  7 10  1  0
  9 11  1  1
 11 12  1  0
 12 13  1  0
 13 14  1  0
 14 15  1  0
 15 16  1  0
 17 16  1  1
 17 18  1  0
 17 19  1  0
 19 20  1  6
 18 21  1  0
 19 22  1  0
 21 22  1  0
 21 23  1  1
 22 24  1  6
M  END
>  <%Rank>  (766) 
58.396947

>  <N_hits>  (766) 
2

>  <submitter_name>  (766) 
nan

>  <original SMILES>  (766) 
nan

>  <∆G_unbound>  (766) 
0.335171

>  <∆G_bound>  (766) 
-9.929018

>  <regarded>  (766) 
mArh-2fav_B_0_B_δ,mArh-5cb5_I_0_I_α

>  <ref_pdb>  (766) 
nan

>  <smiles>  (766) 
CC1OC(OCCCCCC2NC3NCNC(N)C3N2)C(O)C1O

>  <submitter_email>  (766) 
nan

>  <disregarded>  (766) 


>  <LE>  (766) 
-0.427675

>  <submitter_institution>  (766) 
nan

>  <ref_mols>  (766) 
mArh-2fav_B_0_B,mArh-5cb5_I_0_I

>  <N_constrained_atoms>  (766) 
19.0

>  <ref_url>  (766) 
nan

>  <method>  (766) 
nan

>  <comRMSD>  (766) 
0.838639

>  <N_unconstrained_atoms>  (766) 
5.0

>  <∆∆G>  (766) 
-10.264189

>  <runtime>  (766) 
40.464713

>  <generation_date>  (766) 
nan

$$$$
mArh-x0711_0_A_α-6WOJ_0_A_β
     RDKit          3D

 24 24  0  0  0  0  0  0  0  0999 V2000
   -1.3230   15.0640   -2.2440 N   0  0  0  0  0  0  0  0  0  0  0  0
   -0.6020   14.1530   -3.4930 S   0  0  1  0  0  0  0  0  0  0  0  0
   -1.7540   13.0960   -4.3250 C   0  0  0  0  0  0  0  0  0  0  0  0
   -2.6400   14.9480   -1.6890 C   0  0  0  0  0  0  0  0  0  0  0  0
    0.1570   15.1000   -4.5120 N   0  0  0  0  0  0  0  0  0  0  0  0
    0.4720   13.3050   -2.8250 O   0  0  0  0  0  0  0  0  0  0  0  0
   -3.8170   15.1600   -2.3710 C   0  0  0  0  0  0  0  0  0  0  0  0
   -2.7440   14.6140   -0.3540 C   0  0  0  0  0  0  0  0  0  0  0  0
    0.1560   16.5360   -4.6140 C   0  0  0  0  0  0  0  0  0  0  0  0
   -5.0650   15.0530   -1.7450 C   0  0  0  0  0  0  0  0  0  0  0  0
   -3.9830   14.5080    0.2680 C   0  0  0  0  0  0  0  0  0  0  0  0
   -0.6370   16.8830   -5.7490 O   0  0  0  0  0  0  0  0  0  0  0  0
   -5.1490   14.7250   -0.4070 C   0  0  0  0  0  0  0  0  0  0  0  0
   -6.4450   14.6230    0.2380 C   0  0  0  0  0  0  0  0  0  0  0  0
   -1.2770   18.2940   -5.9480 P   0  0  0  0  0  0  0  0  0  0  0  0
   -6.6090   14.5690    1.6470 N   0  0  0  0  0  0  0  0  0  0  0  0
   -7.4840   14.5880   -0.4660 O   0  0  0  0  0  0  0  0  0  0  0  0
    0.0010   18.9780   -6.6710 O   0  0  0  0  0  0  0  0  0  0  0  0
   -1.4850   18.4560   -4.3320 O   0  0  0  0  0  0  0  0  0  0  0  0
   -2.5460   17.7050   -6.8020 O   0  0  0  0  0  0  0  0  0  0  0  0
   -0.1290   19.9100   -7.8700 P   0  0  0  0  0  0  0  0  0  0  0  0
   -1.6300   20.3850   -7.5660 O   0  0  0  0  0  0  0  0  0  0  0  0
    1.1930   20.8250   -7.4340 O   0  0  0  0  0  0  0  0  0  0  0  0
    0.1040   18.5940   -8.8460 O   0  0  0  0  0  0  0  0  0  0  0  0
  2  1  1  0
  2  3  1  6
  1  4  1  0
  2  5  2  0
  2  6  2  0
  4  7  2  0
  4  8  1  0
  5  9  1  0
  7 10  1  0
  8 11  2  0
  9 12  1  0
 10 13  2  0
 11 13  1  0
 13 14  1  0
 12 15  1  0
 14 16  1  0
 14 17  2  0
 15 18  1  0
 15 19  1  0
 15 20  1  0
 18 21  1  0
 21 22  1  0
 21 23  1  0
 21 24  1  0
M  CHG  2  19  -1  23  -1
M  END
>  <%Rank>  (767) 
58.473282

>  <N_hits>  (767) 
2

>  <submitter_name>  (767) 
nan

>  <original SMILES>  (767) 
nan

>  <∆G_unbound>  (767) 
1.928174

>  <∆G_bound>  (767) 
-10.003626

>  <regarded>  (767) 
mArh-x0711_0_A_α,6WOJ_0_A_β

>  <ref_pdb>  (767) 
nan

>  <smiles>  (767) 
CS(=O)(=NCO[PH]([O-])(O)O[PH]([O-])(O)O)Nc1ccc(C(N)=O)cc1

>  <submitter_email>  (767) 
nan

>  <disregarded>  (767) 


>  <LE>  (767) 
-0.497158

>  <submitter_institution>  (767) 
nan

>  <ref_mols>  (767) 
mArh-x0711_0_A,6WOJ_0_A

>  <N_constrained_atoms>  (767) 
23.0

>  <ref_url>  (767) 
nan

>  <method>  (767) 
nan

>  <comRMSD>  (767) 
1.055333

>  <N_unconstrained_atoms>  (767) 
1.0

>  <∆∆G>  (767) 
-11.931799

>  <runtime>  (767) 
53.168914

>  <generation_date>  (767) 
nan

$$$$
mArh-5lw0_B_1_B_β-mArh-x0104_0_A_β
     RDKit          3D

 20 20  0  0  0  0  0  0  0  0999 V2000
   -1.6170   20.2560   -8.4540 O   0  0  0  0  0  0  0  0  0  0  0  0
   -0.4760   19.5090   -7.6560 P   0  0  0  0  0  0  0  0  0  0  0  0
   -1.1660   19.0930   -6.2620 O   0  0  0  0  0  0  0  0  0  0  0  0
    0.7740   20.2800   -7.5880 O   0  0  0  0  0  0  0  0  0  0  0  0
   -0.3040   18.2300   -8.5760 O   0  0  0  0  0  0  0  0  0  0  0  0
   -1.7430   17.6490   -5.9450 P   0  0  0  0  0  0  0  0  0  0  0  0
   -0.4240   16.7630   -5.8180 O   0  0  0  0  0  0  0  0  0  0  0  0
   -2.7380   17.1420   -6.9120 O   0  0  0  0  0  0  0  0  0  0  0  0
   -2.2100   17.4790   -4.4450 O   0  0  0  0  0  0  0  0  0  0  0  0
   -2.5710   16.1340   -4.1800 C   0  0  0  0  0  0  0  0  0  0  0  0
   -2.3980   15.7340   -2.7320 C   0  0  0  0  0  0  0  0  0  0  0  0
   -3.2800   14.5410   -2.4170 C   0  0  0  0  0  0  0  0  0  0  0  0
   -4.6530   14.9290   -2.3640 O   0  0  0  0  0  0  0  0  0  0  0  0
   -5.1850   14.8800   -1.0990 C   0  0  0  0  0  0  0  0  0  0  0  0
   -4.3730   15.0060   -0.0360 N   0  0  0  0  0  0  0  0  0  0  0  0
   -6.5560   14.6940   -1.0150 C   0  0  0  0  0  0  0  0  0  0  0  0
   -4.9710   14.9440    1.1730 C   0  0  0  0  0  0  0  0  0  0  0  0
   -7.1360   14.6330    0.2470 C   0  0  0  0  0  0  0  0  0  0  0  0
   -6.3400   14.7600    1.3780 C   0  0  0  0  0  0  0  0  0  0  0  0
   -6.8900   14.7090    2.6570 N   0  0  0  0  0  0  0  0  0  0  0  0
  1  2  1  0
  2  3  1  0
  2  4  2  0
  2  5  1  0
  3  6  1  0
  6  7  1  0
  6  8  2  0
  6  9  1  0
  9 10  1  0
 10 11  1  0
 11 12  1  0
 12 13  1  0
 13 14  1  0
 14 15  2  0
 14 16  1  0
 15 17  1  0
 16 18  2  0
 17 19  2  0
 18 19  1  0
 19 20  1  0
M  END
>  <%Rank>  (768) 
58.549618

>  <N_hits>  (768) 
2

>  <submitter_name>  (768) 
nan

>  <original SMILES>  (768) 
nan

>  <∆G_unbound>  (768) 
0.543464

>  <∆G_bound>  (768) 
-9.045691

>  <regarded>  (768) 
mArh-5lw0_B_1_B_β,mArh-x0104_0_A_β

>  <ref_pdb>  (768) 
nan

>  <smiles>  (768) 
Nc1ccc(OCCCOP(=O)(O)OP(=O)(O)O)nc1

>  <submitter_email>  (768) 
nan

>  <disregarded>  (768) 


>  <LE>  (768) 
-0.479458

>  <submitter_institution>  (768) 
nan

>  <ref_mols>  (768) 
mArh-5lw0_B_1_B,mArh-x0104_0_A

>  <N_constrained_atoms>  (768) 
18.0

>  <ref_url>  (768) 
nan

>  <method>  (768) 
nan

>  <comRMSD>  (768) 
0.922577

>  <N_unconstrained_atoms>  (768) 
2.0

>  <∆∆G>  (768) 
-9.589155

>  <runtime>  (768) 
36.432766

>  <generation_date>  (768) 
nan

$$$$
mArh-x0926_0_A_α-mArh-x0587_0_A_α
     RDKit          3D

 19 20  0  0  0  0  0  0  0  0999 V2000
   -5.7450   16.4270   -0.6620 O   0  0  0  0  0  0  0  0  0  0  0  0
   -4.7060   15.8300   -0.4660 C   0  0  0  0  0  0  0  0  0  0  0  0
   -4.1350   15.7650    0.9010 C   0  0  0  0  0  0  0  0  0  0  0  0
   -4.0490   15.1310   -1.4300 N   0  0  0  0  0  0  0  0  0  0  0  0
   -2.7320   14.7380   -1.2890 N   0  0  0  0  0  0  0  0  0  0  0  0
   -2.9370   15.2560    1.0970 C   0  0  0  0  0  0  0  0  0  0  0  0
   -5.0180   14.1330   -1.7290 C   0  0  0  0  0  0  0  0  0  0  0  0
   -2.2360   14.7980   -0.0990 C   0  0  0  0  0  0  0  0  0  0  0  0
   -4.4340   12.9060   -1.8660 F   0  0  0  0  0  0  0  0  0  0  0  0
   -5.5890   14.4790   -2.9200 F   0  0  0  0  0  0  0  0  0  0  0  0
   -5.9810   14.2790   -0.5220 C   0  0  0  0  0  0  0  0  0  0  0  0
   -7.3170   14.3510   -0.7220 N   0  0  0  0  0  0  0  0  0  0  0  0
   -5.4110   14.3620    0.7140 N   0  0  0  0  0  0  0  0  0  0  0  0
   -8.0840   14.5380    0.3780 C   0  0  0  0  0  0  0  0  0  0  0  0
   -6.2290   14.5510    1.7680 C   0  0  0  0  0  0  0  0  0  0  0  0
   -7.5920   14.6530    1.6560 C   0  0  0  0  0  0  0  0  0  0  0  0
   -8.4200   14.8760    2.8470 C   0  0  0  0  0  0  0  0  0  0  0  0
   -7.8150   14.8660    4.0710 N   0  0  0  0  0  0  0  0  0  0  0  0
   -9.6230   15.0800    2.7390 O   0  0  0  0  0  0  0  0  0  0  0  0
  1  2  2  0
  2  3  1  0
  2  4  1  0
  4  5  1  0
  3  6  2  0
  4  7  1  0
  5  8  2  0
  6  8  1  0
  7  9  1  0
  7 10  1  0
  7 11  1  0
 11 12  2  0
 11 13  1  0
 12 14  1  0
 13 15  2  0
 14 16  2  0
 15 16  1  0
 16 17  1  0
 17 18  1  0
 17 19  2  0
M  END
>  <%Rank>  (769) 
58.625954

>  <N_hits>  (769) 
2

>  <submitter_name>  (769) 
nan

>  <original SMILES>  (769) 
nan

>  <∆G_unbound>  (769) 
1.168072

>  <∆G_bound>  (769) 
0.196129

>  <regarded>  (769) 
mArh-x0926_0_A_α,mArh-x0587_0_A_α

>  <ref_pdb>  (769) 
nan

>  <smiles>  (769) 
NC(=O)c1cnc(C(F)(F)n2ncccc2=O)nc1

>  <submitter_email>  (769) 
nan

>  <disregarded>  (769) 


>  <LE>  (769) 
-0.051155

>  <submitter_institution>  (769) 
nan

>  <ref_mols>  (769) 
mArh-x0926_0_A,mArh-x0587_0_A

>  <N_constrained_atoms>  (769) 
19.0

>  <ref_url>  (769) 
nan

>  <method>  (769) 
nan

>  <comRMSD>  (769) 
0.784881

>  <N_unconstrained_atoms>  (769) 
0.0

>  <∆∆G>  (769) 
-0.971943

>  <runtime>  (769) 
29.397041

>  <generation_date>  (769) 
nan

$$$$
mArh-4iqy_A_0_A_α-mArh-x0766_0_A_α
     RDKit          3D

 28 30  0  0  0  0  0  0  0  0999 V2000
   -2.1770   23.1130   -8.0160 C   0  0  0  0  0  0  0  0  0  0  0  0
   -3.2220   22.2090   -8.6040 C   0  0  1  0  0  0  0  0  0  0  0  0
   -3.4020   21.2700   -7.6050 O   0  0  0  0  0  0  0  0  0  0  0  0
   -4.6180   22.7740   -8.8540 C   0  0  2  0  0  0  0  0  0  0  0  0
   -4.6490   24.0750   -9.4100 O   0  0  0  0  0  0  0  0  0  0  0  0
   -4.3680   21.7870   -6.7020 C   0  0  1  0  0  0  0  0  0  0  0  0
   -5.3490   22.6110   -7.5110 C   0  0  1  0  0  0  0  0  0  0  0  0
   -4.8130   20.5510   -6.3040 O   0  0  0  0  0  0  0  0  0  0  0  0
   -5.6000   23.8790   -6.8760 O   0  0  0  0  0  0  0  0  0  0  0  0
   -3.6570   19.8170   -6.7690 C   0  0  0  0  0  0  0  0  0  0  0  0
   -2.4350   19.7660   -5.8380 C   0  0  0  0  0  0  0  0  0  0  0  0
   -1.4780   18.5930   -6.1840 C   0  0  0  0  0  0  0  0  0  0  0  0
   -1.4100   17.3510   -5.2610 C   0  0  0  0  0  0  0  0  0  0  0  0
   -2.6730   16.4880   -5.0610 C   0  0  0  0  0  0  0  0  0  0  0  0
   -2.5170   15.0350   -4.5760 C   0  0  0  0  0  0  0  0  0  0  0  0
   -2.4460   14.9090   -3.0590 C   0  0  0  0  0  0  0  0  0  0  0  0
   -1.3150   14.6540   -2.3100 C   0  0  0  0  0  0  0  0  0  0  0  0
   -3.8320   15.0850   -2.0490 S   0  0  0  0  0  0  0  0  0  0  0  0
    0.0400   14.4610   -2.9200 C   0  0  1  0  0  0  0  0  0  0  0  0
   -1.6020   14.6070   -0.9060 C   0  0  0  0  0  0  0  0  0  0  0  0
   -2.9260   14.8240   -0.6260 C   0  0  0  0  0  0  0  0  0  0  0  0
    0.2410   13.2290   -3.8030 C   0  0  2  0  0  0  0  0  0  0  0  0
    0.4350   15.6270   -3.7990 C   0  0  0  0  0  0  0  0  0  0  0  0
    0.6320   12.1380   -2.8540 C   0  0  0  0  0  0  0  0  0  0  0  0
    1.3780   13.6100   -4.7690 C   0  0  0  0  0  0  0  0  0  0  0  0
    1.6250   15.1110   -4.5660 C   0  0  0  0  0  0  0  0  0  0  0  0
    1.4990   12.2320   -2.0150 O   0  0  0  0  0  0  0  0  0  0  0  0
   -0.0810   11.0040   -2.9820 O   0  0  0  0  0  0  0  0  0  0  0  0
  2  1  1  1
  2  3  1  0
  2  4  1  0
  4  5  1  1
  3  6  1  0
  4  7  1  0
  6  7  1  0
  6  8  1  6
  7  9  1  1
  8 10  1  0
 10 11  1  0
 11 12  1  0
 12 13  1  0
 13 14  1  0
 14 15  1  0
 15 16  1  0
 16 17  2  0
 16 18  1  0
 19 17  1  6
 17 20  1  0
 18 21  1  0
 20 21  2  0
 19 22  1  0
 19 23  1  0
 22 24  1  1
 22 25  1  0
 23 26  1  0
 25 26  1  0
 24 27  2  0
 24 28  1  0
M  END
>  <%Rank>  (770) 
58.70229

>  <N_hits>  (770) 
2

>  <submitter_name>  (770) 
nan

>  <original SMILES>  (770) 
nan

>  <∆G_unbound>  (770) 
0.537505

>  <∆G_bound>  (770) 
-10.525737

>  <regarded>  (770) 
mArh-4iqy_A_0_A_α,mArh-x0766_0_A_α

>  <ref_pdb>  (770) 
nan

>  <smiles>  (770) 
CC1OC(OCCCCCCc2sccc2C2CCCC2C(=O)O)C(O)C1O

>  <submitter_email>  (770) 
nan

>  <disregarded>  (770) 


>  <LE>  (770) 
-0.395116

>  <submitter_institution>  (770) 
nan

>  <ref_mols>  (770) 
mArh-4iqy_A_0_A,mArh-x0766_0_A

>  <N_constrained_atoms>  (770) 
22.0

>  <ref_url>  (770) 
nan

>  <method>  (770) 
nan

>  <comRMSD>  (770) 
0.875473

>  <N_unconstrained_atoms>  (770) 
6.0

>  <∆∆G>  (770) 
-11.063242

>  <runtime>  (770) 
43.881879

>  <generation_date>  (770) 
nan

$$$$
mArh-x0727_0_A_α-mArh-5cb5_L_0_L_γ
     RDKit          3D

 18 19  0  0  0  0  0  0  0  0999 V2000
    0.4540   11.3550   -5.4270 N   0  0  0  0  0  0  0  0  0  0  0  0
    1.2510   12.4000   -4.8500 C   0  0  0  0  0  0  0  0  0  0  0  0
    0.7120   12.8030   -3.4800 C   0  0  0  0  0  0  0  0  0  0  0  0
    0.5320   11.0390   -6.7440 C   0  0  0  0  0  0  0  0  0  0  0  0
    1.3910   11.4530   -7.4900 O   0  0  0  0  0  0  0  0  0  0  0  0
   -0.5870   10.0990   -7.0820 C   0  0  0  0  0  0  0  0  0  0  0  0
   -0.3450   11.9250   -3.0920 O   0  0  0  0  0  0  0  0  0  0  0  0
    1.7130   12.6070   -2.4910 O   0  0  0  0  0  0  0  0  0  0  0  0
   -1.0500   10.0160   -8.5180 C   0  0  0  0  0  0  0  0  0  0  0  0
   -0.3180    8.6450   -6.7510 C   0  0  0  0  0  0  0  0  0  0  0  0
    0.3390   14.2790   -3.5300 C   0  0  2  0  0  0  0  0  0  0  0  0
   -2.0200    8.8370   -8.4470 C   0  0  0  0  0  0  0  0  0  0  0  0
   -1.6340    8.0330   -7.1920 C   0  0  0  0  0  0  0  0  0  0  0  0
   -1.0890   14.7740   -3.4820 C   0  0  0  0  0  0  0  0  0  0  0  0
    0.8150   14.9590   -4.8000 C   0  0  0  0  0  0  0  0  0  0  0  0
   -1.0420   16.0980   -4.0810 O   0  0  0  0  0  0  0  0  0  0  0  0
    0.3160   16.3400   -4.4900 C   0  0  2  0  0  0  0  0  0  0  0  0
    0.4150   17.3220   -5.6370 C   0  0  0  0  0  0  0  0  0  0  0  0
  1  2  1  0
  2  3  1  0
  1  4  1  0
  4  5  2  0
  4  6  1  0
  3  7  1  0
  3  8  1  0
  6  9  1  0
  6 10  1  0
 11  3  1  6
  9 12  1  0
 10 13  1  0
 12 13  1  0
 11 14  1  0
 11 15  1  0
 14 16  1  0
 15 17  1  0
 16 17  1  0
 17 18  1  6
M  END
>  <%Rank>  (771) 
58.778626

>  <N_hits>  (771) 
2

>  <submitter_name>  (771) 
nan

>  <original SMILES>  (771) 
nan

>  <∆G_unbound>  (771) 
0.362969

>  <∆G_bound>  (771) 
-4.338753

>  <regarded>  (771) 
mArh-x0727_0_A_α,mArh-5cb5_L_0_L_γ

>  <ref_pdb>  (771) 
nan

>  <smiles>  (771) 
CC1CC(C(O)(O)CNC(=O)C2CCCC2)CO1

>  <submitter_email>  (771) 
nan

>  <disregarded>  (771) 


>  <LE>  (771) 
-0.261207

>  <submitter_institution>  (771) 
nan

>  <ref_mols>  (771) 
mArh-x0727_0_A,mArh-5cb5_L_0_L

>  <N_constrained_atoms>  (771) 
18.0

>  <ref_url>  (771) 
nan

>  <method>  (771) 
nan

>  <comRMSD>  (771) 
0.871717

>  <N_unconstrained_atoms>  (771) 
0.0

>  <∆∆G>  (771) 
-4.701722

>  <runtime>  (771) 
27.0617

>  <generation_date>  (771) 
nan

$$$$
mArh-5lw0_B_1_B_β-5L9K_0_A_δ
     RDKit          3D

 21 22  0  0  0  0  0  0  0  0999 V2000
   -1.5420   20.2610   -8.5960 O   0  0  0  0  0  0  0  0  0  0  0  0
   -0.4940   19.4740   -7.7090 P   0  0  0  0  0  0  0  0  0  0  0  0
   -1.2530   19.0630   -6.3550 O   0  0  0  0  0  0  0  0  0  0  0  0
    0.7250   20.2940   -7.5630 O   0  0  0  0  0  0  0  0  0  0  0  0
   -0.2420   18.2270   -8.6440 O   0  0  0  0  0  0  0  0  0  0  0  0
   -1.7670   17.6200   -5.9260 P   0  0  2  0  0  0  0  0  0  0  0  0
   -0.4220   16.7640   -5.8570 O   0  0  0  0  0  0  0  0  0  0  0  0
   -2.8040   17.0410   -6.8170 O   0  0  0  0  0  0  0  0  0  0  0  0
   -2.1260   17.6280   -4.3780 O   0  0  0  0  0  0  0  0  0  0  0  0
   -1.8920   16.4130   -3.6760 C   0  0  0  0  0  0  0  0  0  0  0  0
   -3.0930   15.4760   -3.7420 C   0  0  0  0  0  0  0  0  0  0  0  0
   -3.5850   14.8200   -2.4400 C   0  0  1  0  0  0  0  0  0  0  0  0
   -2.5760   13.8910   -1.9280 N   0  0  0  0  0  0  0  0  0  0  0  0
   -3.9740   15.7020   -1.3380 N   0  0  0  0  0  0  0  0  0  0  0  0
   -2.3990   14.2020   -0.5320 C   0  0  2  0  0  0  0  0  0  0  0  0
   -3.6750   14.9200   -0.1310 C   0  0  1  0  0  0  0  0  0  0  0  0
   -1.1940   14.9920   -0.4180 N   0  0  0  0  0  0  0  0  0  0  0  0
   -3.3080   15.7110    1.1080 C   0  0  1  0  0  0  0  0  0  0  0  0
   -4.3660   15.7940    2.1000 N   0  0  0  0  0  0  0  0  0  0  0  0
   -0.9390   15.2450    0.9730 C   0  0  0  0  0  0  0  0  0  0  0  0
   -2.1650   15.1150    1.7460 N   0  0  0  0  0  0  0  0  0  0  0  0
  1  2  1  0
  2  3  1  0
  2  4  2  0
  2  5  1  0
  3  6  1  0
  6  7  1  1
  6  8  2  0
  6  9  1  0
  9 10  1  0
 10 11  1  0
 12 11  1  6
 12 13  1  0
 12 14  1  0
 15 13  1  6
 16 14  1  6
 15 16  1  0
 15 17  1  0
 16 18  1  0
 18 19  1  1
 17 20  1  0
 18 21  1  0
 20 21  1  0
M  END
>  <%Rank>  (772) 
58.854962

>  <N_hits>  (772) 
2

>  <submitter_name>  (772) 
nan

>  <original SMILES>  (772) 
nan

>  <∆G_unbound>  (772) 
4.831508

>  <∆G_bound>  (772) 
-7.728792

>  <regarded>  (772) 
mArh-5lw0_B_1_B_β,5L9K_0_A_δ

>  <ref_pdb>  (772) 
nan

>  <smiles>  (772) 
NC1NCNC2NC(CCOP(=O)(O)OP(=O)(O)O)NC12

>  <submitter_email>  (772) 
nan

>  <disregarded>  (772) 


>  <LE>  (772) 
-0.59811

>  <submitter_institution>  (772) 
nan

>  <ref_mols>  (772) 
mArh-5lw0_B_1_B,5L9K_0_A

>  <N_constrained_atoms>  (772) 
19.0

>  <ref_url>  (772) 
nan

>  <method>  (772) 
nan

>  <comRMSD>  (772) 
1.009386

>  <N_unconstrained_atoms>  (772) 
2.0

>  <∆∆G>  (772) 
-12.560301

>  <runtime>  (772) 
35.016471

>  <generation_date>  (772) 
nan

$$$$
5CB5_0_G_β-6MEA_0_A_α
     RDKit          3D

 17 17  0  0  0  0  0  0  0  0999 V2000
   -2.0380   21.4930   -8.7360 O   0  0  0  0  0  0  0  0  0  0  0  0
   -0.8950   20.4610   -7.9450 P   0  0  0  0  0  0  0  0  0  0  0  0
   -1.3350   19.8790   -6.4870 O   0  0  0  0  0  0  0  0  0  0  0  0
   -3.4190   21.5580   -8.3250 C   0  0  1  0  0  0  0  0  0  0  0  0
   -0.3520   21.7140   -7.3040 O   0  0  0  0  0  0  0  0  0  0  0  0
   -1.2390   19.1430   -8.6180 O   0  0  0  0  0  0  0  0  0  0  0  0
   -3.7190   21.1240   -7.0540 O   0  0  0  0  0  0  0  0  0  0  0  0
   -4.1540   22.9610   -8.3340 C   0  0  2  0  0  0  0  0  0  0  0  0
   -1.4130   18.4270   -5.9760 P   0  0  0  0  0  0  0  0  0  0  0  0
   -3.4180   23.9650   -8.8630 O   0  0  0  0  0  0  0  0  0  0  0  0
   -4.8580   21.7850   -6.6690 C   0  0  2  0  0  0  0  0  0  0  0  0
   -4.4420   23.1910   -6.8470 C   0  0  2  0  0  0  0  0  0  0  0  0
   -1.3430   16.9940   -5.4230 O   0  0  0  0  0  0  0  0  0  0  0  0
   -2.6180   18.0370   -7.0090 O   0  0  0  0  0  0  0  0  0  0  0  0
   -1.8440   19.0350   -4.5240 O   0  0  0  0  0  0  0  0  0  0  0  0
   -5.3930   21.5010   -5.4360 O   0  0  0  0  0  0  0  0  0  0  0  0
   -5.4870   24.1210   -6.7320 O   0  0  0  0  0  0  0  0  0  0  0  0
  1  2  1  0
  2  3  1  0
  4  1  1  1
  2  5  1  0
  2  6  1  0
  4  7  1  0
  4  8  1  0
  3  9  1  0
  8 10  1  1
  7 11  1  0
  8 12  1  0
 11 12  1  0
  9 13  1  0
  9 14  1  0
  9 15  1  0
 11 16  1  1
 12 17  1  6
M  CHG  2   5  -1  14  -1
M  END
>  <%Rank>  (773) 
58.931298

>  <N_hits>  (773) 
2

>  <submitter_name>  (773) 
nan

>  <original SMILES>  (773) 
nan

>  <∆G_unbound>  (773) 
0.972863

>  <∆G_bound>  (773) 
-5.947604

>  <regarded>  (773) 
5CB5_0_G_β,6MEA_0_A_α

>  <ref_pdb>  (773) 
nan

>  <smiles>  (773) 
[O-][PH](O)(O)O[PH]([O-])(O)OC1OC(O)C(O)C1O

>  <submitter_email>  (773) 
nan

>  <disregarded>  (773) 


>  <LE>  (773) 
-0.407086

>  <submitter_institution>  (773) 
nan

>  <ref_mols>  (773) 
5CB5_0_G,6MEA_0_A

>  <N_constrained_atoms>  (773) 
17.0

>  <ref_url>  (773) 
nan

>  <method>  (773) 
nan

>  <comRMSD>  (773) 
0.925002

>  <N_unconstrained_atoms>  (773) 
0.0

>  <∆∆G>  (773) 
-6.920467

>  <runtime>  (773) 
37.938451

>  <generation_date>  (773) 
nan

$$$$
6WOJ_0_B_α-mArh-5cms_M_12_M_γ
     RDKit          3D

 22 23  0  0  0  0  0  0  0  0999 V2000
   -3.0200   21.7540   -9.0890 C   0  0  0  0  0  0  0  0  0  0  0  0
   -2.7280   22.8010   -8.0740 C   0  0  2  0  0  0  0  0  0  0  0  0
   -2.6570   22.0850   -6.8650 O   0  0  0  0  0  0  0  0  0  0  0  0
   -3.8470   23.8090   -7.8930 C   0  0  1  0  0  0  0  0  0  0  0  0
   -4.4910   24.0750   -9.1410 O   0  0  0  0  0  0  0  0  0  0  0  0
   -3.8520   22.2760   -6.1250 C   0  0  1  0  0  0  0  0  0  0  0  0
   -4.8180   23.1080   -6.9640 C   0  0  1  0  0  0  0  0  0  0  0  0
   -4.2260   20.9740   -5.7570 O   0  0  0  0  0  0  0  0  0  0  0  0
   -5.5100   24.0790   -6.1540 O   0  0  0  0  0  0  0  0  0  0  0  0
   -2.9220   20.3510   -5.6510 C   0  0  0  0  0  0  0  0  0  0  0  0
   -2.4330   19.7270   -6.9470 C   0  0  0  0  0  0  0  0  0  0  0  0
   -0.9230   19.8360   -7.1170 C   0  0  0  0  0  0  0  0  0  0  0  0
   -0.2370   18.4800   -7.2330 C   0  0  0  0  0  0  0  0  0  0  0  0
    0.5430   17.9810   -5.9960 C   0  0  0  0  0  0  0  0  0  0  0  0
   -0.2390   16.9310   -5.1870 C   0  0  0  0  0  0  0  0  0  0  0  0
    0.5880   15.7640   -4.5910 C   0  0  1  0  0  0  0  0  0  0  0  0
    0.1740   15.6330   -3.2050 O   0  0  0  0  0  0  0  0  0  0  0  0
    0.3330   14.3570   -5.1540 C   0  0  1  0  0  0  0  0  0  0  0  0
    1.3030   13.3650   -4.8650 O   0  0  0  0  0  0  0  0  0  0  0  0
   -0.7560   14.5360   -3.1000 C   0  0  0  0  0  0  0  0  0  0  0  0
   -0.9930   14.0160   -4.5070 C   0  0  2  0  0  0  0  0  0  0  0  0
   -1.2490   12.6200   -4.5780 O   0  0  0  0  0  0  0  0  0  0  0  0
  2  1  1  6
  2  3  1  0
  2  4  1  0
  4  5  1  6
  3  6  1  0
  4  7  1  0
  6  7  1  0
  6  8  1  6
  7  9  1  1
  8 10  1  0
 10 11  1  0
 11 12  1  0
 12 13  1  0
 13 14  1  0
 14 15  1  0
 16 15  1  6
 16 17  1  0
 16 18  1  0
 18 19  1  1
 17 20  1  0
 18 21  1  0
 20 21  1  0
 21 22  1  1
M  END
>  <%Rank>  (774) 
59.007634

>  <N_hits>  (774) 
2

>  <submitter_name>  (774) 
nan

>  <original SMILES>  (774) 
nan

>  <∆G_unbound>  (774) 
0.187336

>  <∆G_bound>  (774) 
-11.653436

>  <regarded>  (774) 
6WOJ_0_B_α,mArh-5cms_M_12_M_γ

>  <ref_pdb>  (774) 
nan

>  <smiles>  (774) 
CC1OC(OCCCCCCC2OCC(O)C2O)C(O)C1O

>  <submitter_email>  (774) 
nan

>  <disregarded>  (774) 


>  <LE>  (774) 
-0.538217

>  <submitter_institution>  (774) 
nan

>  <ref_mols>  (774) 
6WOJ_0_B,mArh-5cms_M_12_M

>  <N_constrained_atoms>  (774) 
17.0

>  <ref_url>  (774) 
nan

>  <method>  (774) 
nan

>  <comRMSD>  (774) 
0.843684

>  <N_unconstrained_atoms>  (774) 
5.0

>  <∆∆G>  (774) 
-11.840771

>  <runtime>  (774) 
46.271962

>  <generation_date>  (774) 
nan

$$$$
mArh-x0805_0_A_α-mArh-mac-194_0_A_α
     RDKit          3D

 20 22  0  0  0  0  0  0  0  0999 V2000
   -1.8390   14.5300    0.3620 O   0  0  0  0  0  0  0  0  0  0  0  0
   -2.9160   15.1350    1.0410 C   0  0  0  0  0  0  0  0  0  0  0  0
   -3.9000   15.1150   -0.0250 C   0  0  0  0  0  0  0  0  0  0  0  0
   -2.1890   14.0280   -0.8860 C   0  0  0  0  0  0  0  0  0  0  0  0
   -3.2680   13.1730   -1.1790 C   0  0  0  0  0  0  0  0  0  0  0  0
   -1.3610   14.4460   -1.9310 C   0  0  0  0  0  0  0  0  0  0  0  0
   -1.5940   14.0250   -3.2430 C   0  0  0  0  0  0  0  0  0  0  0  0
   -3.5000   12.7510   -2.4970 C   0  0  0  0  0  0  0  0  0  0  0  0
   -5.2340   14.9480    0.2050 C   0  0  0  0  0  0  0  0  0  0  0  0
   -3.3980   15.2690   -1.3190 C   0  0  0  0  0  0  0  0  0  0  0  0
   -2.6650   13.1770   -3.5220 C   0  0  0  0  0  0  0  0  0  0  0  0
   -6.0620   14.9370   -0.9050 C   0  0  0  0  0  0  0  0  0  0  0  0
   -5.7090   14.7970    1.5150 N   0  0  0  0  0  0  0  0  0  0  0  0
   -4.2270   15.2550   -2.4140 C   0  0  0  0  0  0  0  0  0  0  0  0
   -6.9740   14.6290    1.6910 C   0  0  0  0  0  0  0  0  0  0  0  0
   -7.4860   14.7600   -0.6610 C   0  0  0  0  0  0  0  0  0  0  0  0
   -5.5790   15.0860   -2.2070 C   0  0  0  0  0  0  0  0  0  0  0  0
   -7.4640   14.4950    2.9460 N   0  0  0  0  0  0  0  0  0  0  0  0
   -8.2910   14.7660   -1.5770 O   0  0  0  0  0  0  0  0  0  0  0  0
   -7.8590   14.5860    0.6520 N   0  0  0  0  0  0  0  0  0  0  0  0
  1  2  1  0
  2  3  1  0
  1  4  1  0
  4  5  2  0
  4  6  1  0
  6  7  2  0
  5  8  1  0
  3  9  1  0
  3 10  2  0
  7 11  1  0
  8 11  2  0
  9 12  2  0
  9 13  1  0
 10 14  1  0
 13 15  2  0
 12 16  1  0
 12 17  1  0
 14 17  2  0
 15 18  1  0
 16 19  2  0
 15 20  1  0
 16 20  1  0
M  END
>  <%Rank>  (775) 
59.083969

>  <N_hits>  (775) 
2

>  <submitter_name>  (775) 
nan

>  <original SMILES>  (775) 
nan

>  <∆G_unbound>  (775) 
0.105488

>  <∆G_bound>  (775) 
-4.383984

>  <regarded>  (775) 
mArh-x0805_0_A_α,mArh-mac-194_0_A_α

>  <ref_pdb>  (775) 
nan

>  <smiles>  (775) 
Nc1nc2c(COc3ccccc3)cccc2c(=O)[nH]1

>  <submitter_email>  (775) 
nan

>  <disregarded>  (775) 


>  <LE>  (775) 
-0.224474

>  <submitter_institution>  (775) 
nan

>  <ref_mols>  (775) 
mArh-x0805_0_A,mArh-mac-194_0_A

>  <N_constrained_atoms>  (775) 
20.0

>  <ref_url>  (775) 
nan

>  <method>  (775) 
nan

>  <comRMSD>  (775) 
0.897738

>  <N_unconstrained_atoms>  (775) 
0.0

>  <∆∆G>  (775) 
-4.489472

>  <runtime>  (775) 
33.058418

>  <generation_date>  (775) 
nan

$$$$
5CMS_0_F_β-4IQY_0_A_β
     RDKit          3D

  9  8  0  0  0  0  0  0  0  0999 V2000
   -1.9690   20.7930   -8.4150 O   0  0  0  0  0  0  0  0  0  0  0  0
   -0.5130   20.1610   -8.1380 P   0  0  0  0  0  0  0  0  0  0  0  0
   -0.6690   19.6640   -6.7310 O   0  0  0  0  0  0  0  0  0  0  0  0
    0.7360   21.1350   -7.6990 O   0  0  0  0  0  0  0  0  0  0  0  0
   -0.1560   18.6060   -8.6710 O   0  0  0  0  0  0  0  0  0  0  0  0
   -1.6520   18.5050   -6.1240 P   0  0  0  0  0  0  0  0  0  0  0  0
   -0.5550   17.4580   -6.2510 O   0  0  0  0  0  0  0  0  0  0  0  0
   -2.6810   17.6200   -7.0060 O   0  0  0  0  0  0  0  0  0  0  0  0
   -1.7560   18.3540   -4.4970 O   0  0  0  0  0  0  0  0  0  0  0  0
  1  2  1  0
  2  3  1  0
  2  4  1  0
  2  5  1  0
  3  6  1  0
  6  7  1  0
  6  8  1  0
  6  9  1  0
M  CHG  2   4  -1   8  -1
M  END
>  <%Rank>  (776) 
59.160305

>  <N_hits>  (776) 
2

>  <submitter_name>  (776) 
nan

>  <original SMILES>  (776) 
nan

>  <∆G_unbound>  (776) 
0.654534

>  <∆G_bound>  (776) 
-5.451625

>  <regarded>  (776) 
5CMS_0_F_β,4IQY_0_A_β

>  <ref_pdb>  (776) 
nan

>  <smiles>  (776) 
[O-][PH](O)(O)O[PH]([O-])(O)O

>  <submitter_email>  (776) 
nan

>  <disregarded>  (776) 


>  <LE>  (776) 
-0.678462

>  <submitter_institution>  (776) 
nan

>  <ref_mols>  (776) 
5CMS_0_F,4IQY_0_A

>  <N_constrained_atoms>  (776) 
9.0

>  <ref_url>  (776) 
nan

>  <method>  (776) 
nan

>  <comRMSD>  (776) 
0.840329

>  <N_unconstrained_atoms>  (776) 
0.0

>  <∆∆G>  (776) 
-6.106158

>  <runtime>  (776) 
25.042899

>  <generation_date>  (776) 
nan

$$$$
5CMS_0_F_β-mArh-5cb5_M_1_M_β
     RDKit          3D

  9  8  0  0  0  0  0  0  0  0999 V2000
   -1.9690   20.7930   -8.4150 O   0  0  0  0  0  0  0  0  0  0  0  0
   -0.5130   20.1610   -8.1380 P   0  0  0  0  0  0  0  0  0  0  0  0
   -0.6690   19.6640   -6.7310 O   0  0  0  0  0  0  0  0  0  0  0  0
    0.7360   21.1350   -7.6990 O   0  0  0  0  0  0  0  0  0  0  0  0
   -0.1560   18.6060   -8.6710 O   0  0  0  0  0  0  0  0  0  0  0  0
   -1.6520   18.5050   -6.1240 P   0  0  0  0  0  0  0  0  0  0  0  0
   -0.5550   17.4580   -6.2510 O   0  0  0  0  0  0  0  0  0  0  0  0
   -2.6810   17.6200   -7.0060 O   0  0  0  0  0  0  0  0  0  0  0  0
   -1.7560   18.3540   -4.4970 O   0  0  0  0  0  0  0  0  0  0  0  0
  1  2  1  0
  2  3  1  0
  2  4  1  0
  2  5  1  0
  3  6  1  0
  6  7  1  0
  6  8  1  0
  6  9  1  0
M  CHG  2   4  -1   8  -1
M  END
>  <%Rank>  (777) 
59.236641

>  <N_hits>  (777) 
2

>  <submitter_name>  (777) 
nan

>  <original SMILES>  (777) 
nan

>  <∆G_unbound>  (777) 
0.654534

>  <∆G_bound>  (777) 
-5.451625

>  <regarded>  (777) 
5CMS_0_F_β,mArh-5cb5_M_1_M_β

>  <ref_pdb>  (777) 
nan

>  <smiles>  (777) 
[O-][PH](O)(O)O[PH]([O-])(O)O

>  <submitter_email>  (777) 
nan

>  <disregarded>  (777) 


>  <LE>  (777) 
-0.678462

>  <submitter_institution>  (777) 
nan

>  <ref_mols>  (777) 
5CMS_0_F,mArh-5cb5_M_1_M

>  <N_constrained_atoms>  (777) 
9.0

>  <ref_url>  (777) 
nan

>  <method>  (777) 
nan

>  <comRMSD>  (777) 
0.840444

>  <N_unconstrained_atoms>  (777) 
0.0

>  <∆∆G>  (777) 
-6.106158

>  <runtime>  (777) 
25.003723

>  <generation_date>  (777) 
nan

$$$$
5CMS_0_L_β-mArh-5cb5_A_0_A_β
     RDKit          3D

  9  8  0  0  0  0  0  0  0  0999 V2000
   -1.6920   20.4290   -8.0150 O   0  0  0  0  0  0  0  0  0  0  0  0
   -0.2480   19.7220   -7.9800 P   0  0  0  0  0  0  0  0  0  0  0  0
   -0.3680   18.8250   -6.7790 O   0  0  0  0  0  0  0  0  0  0  0  0
    1.0650   20.4910   -7.3560 O   0  0  0  0  0  0  0  0  0  0  0  0
   -0.0040   18.3760   -8.9190 O   0  0  0  0  0  0  0  0  0  0  0  0
   -1.7190   18.3040   -6.0360 P   0  0  0  0  0  0  0  0  0  0  0  0
   -1.0160   17.0710   -5.4930 O   0  0  0  0  0  0  0  0  0  0  0  0
   -2.8210   17.3540   -6.7630 O   0  0  0  0  0  0  0  0  0  0  0  0
   -2.0360   18.9690   -4.5670 O   0  0  0  0  0  0  0  0  0  0  0  0
  1  2  1  0
  2  3  1  0
  2  4  1  0
  2  5  1  0
  3  6  1  0
  6  7  1  0
  6  8  1  0
  6  9  1  0
M  CHG  2   4  -1   8  -1
M  END
>  <%Rank>  (778) 
59.312977

>  <N_hits>  (778) 
2

>  <submitter_name>  (778) 
nan

>  <original SMILES>  (778) 
nan

>  <∆G_unbound>  (778) 
0.654534

>  <∆G_bound>  (778) 
-5.308263

>  <regarded>  (778) 
5CMS_0_L_β,mArh-5cb5_A_0_A_β

>  <ref_pdb>  (778) 
nan

>  <smiles>  (778) 
[O-][PH](O)(O)O[PH]([O-])(O)O

>  <submitter_email>  (778) 
nan

>  <disregarded>  (778) 


>  <LE>  (778) 
-0.662533

>  <submitter_institution>  (778) 
nan

>  <ref_mols>  (778) 
5CMS_0_L,mArh-5cb5_A_0_A

>  <N_constrained_atoms>  (778) 
9.0

>  <ref_url>  (778) 
nan

>  <method>  (778) 
nan

>  <comRMSD>  (778) 
0.835292

>  <N_unconstrained_atoms>  (778) 
0.0

>  <∆∆G>  (778) 
-5.962797

>  <runtime>  (778) 
22.385525

>  <generation_date>  (778) 
nan

$$$$
5CMS_0_N_β-mArh-x0962_1_A_α
     RDKit          3D

 19 19  0  0  0  0  0  0  0  0999 V2000
   -1.5430   20.8670   -8.2130 O   0  0  0  0  0  0  0  0  0  0  0  0
   -0.6540   19.6800   -7.8670 P   0  0  0  0  0  0  0  0  0  0  0  0
   -1.5010   19.3320   -6.5490 O   0  0  0  0  0  0  0  0  0  0  0  0
    0.6440   20.7140   -7.8380 O   0  0  0  0  0  0  0  0  0  0  0  0
    0.3670   18.5640   -7.6540 O   0  0  0  0  0  0  0  0  0  0  0  0
   -1.5890   17.7880   -6.1880 P   0  0  0  0  0  0  0  0  0  0  0  0
   -0.3090   16.8610   -5.8710 O   0  0  0  0  0  0  0  0  0  0  0  0
   -3.0700   17.0220   -6.5140 O   0  0  0  0  0  0  0  0  0  0  0  0
   -2.0230   17.7950   -4.7270 O   0  0  0  0  0  0  0  0  0  0  0  0
   -2.3780   16.4720   -4.3350 C   0  0  0  0  0  0  0  0  0  0  0  0
   -1.8810   16.0640   -3.0010 C   0  0  0  0  0  0  0  0  0  0  0  0
   -2.3400   14.6840   -2.6700 C   0  0  0  0  0  0  0  0  0  0  0  0
   -3.4610   14.7810   -1.7110 C   0  0  0  0  0  0  0  0  0  0  0  0
   -4.3810   14.8050   -0.9390 C   0  0  0  0  0  0  0  0  0  0  0  0
   -5.4850   14.7270   -0.0330 C   0  0  0  0  0  0  0  0  0  0  0  0
   -5.4850   14.7420    1.3120 N   0  0  0  0  0  0  0  0  0  0  0  0
   -6.8100   14.6100   -0.3990 C   0  0  0  0  0  0  0  0  0  0  0  0
   -6.7340   14.6360    1.7840 C   0  0  0  0  0  0  0  0  0  0  0  0
   -7.5650   14.5540    0.7300 N   0  0  0  0  0  0  0  0  0  0  0  0
  1  2  1  0
  2  3  1  0
  2  4  1  0
  2  5  1  0
  3  6  1  0
  6  7  1  0
  6  8  1  0
  6  9  1  0
  9 10  1  0
 10 11  1  0
 11 12  1  0
 12 13  1  0
 13 14  3  0
 14 15  1  0
 15 16  1  0
 15 17  2  0
 16 18  1  0
 17 19  1  0
 18 19  2  0
M  CHG  2   4  -1   8  -1
M  END
>  <%Rank>  (779) 
59.389313

>  <N_hits>  (779) 
2

>  <submitter_name>  (779) 
nan

>  <original SMILES>  (779) 
nan

>  <∆G_unbound>  (779) 
0.292271

>  <∆G_bound>  (779) 
-5.671155

>  <regarded>  (779) 
5CMS_0_N_β,mArh-x0962_1_A_α

>  <ref_pdb>  (779) 
nan

>  <smiles>  (779) 
[O-][PH](O)(O)O[PH]([O-])(O)OCCCC#Cc1cnc[nH]1

>  <submitter_email>  (779) 
nan

>  <disregarded>  (779) 


>  <LE>  (779) 
-0.313865

>  <submitter_institution>  (779) 
nan

>  <ref_mols>  (779) 
5CMS_0_N,mArh-x0962_1_A

>  <N_constrained_atoms>  (779) 
16.0

>  <ref_url>  (779) 
nan

>  <method>  (779) 
nan

>  <comRMSD>  (779) 
0.768694

>  <N_unconstrained_atoms>  (779) 
3.0

>  <∆∆G>  (779) 
-5.963426

>  <runtime>  (779) 
27.643791

>  <generation_date>  (779) 
nan

$$$$
5CMS_0_L_β-mArh-4iqy_A_0_A_β
     RDKit          3D

  9  8  0  0  0  0  0  0  0  0999 V2000
   -1.6950   20.4250   -8.0190 O   0  0  0  0  0  0  0  0  0  0  0  0
   -0.2540   19.7220   -7.9810 P   0  0  0  0  0  0  0  0  0  0  0  0
   -0.3690   18.8290   -6.7780 O   0  0  0  0  0  0  0  0  0  0  0  0
    1.0620   20.4960   -7.3610 O   0  0  0  0  0  0  0  0  0  0  0  0
   -0.0040   18.3720   -8.9180 O   0  0  0  0  0  0  0  0  0  0  0  0
   -1.7170   18.3050   -6.0350 P   0  0  0  0  0  0  0  0  0  0  0  0
   -1.0130   17.0670   -5.4980 O   0  0  0  0  0  0  0  0  0  0  0  0
   -2.8210   17.3590   -6.7650 O   0  0  0  0  0  0  0  0  0  0  0  0
   -2.0260   18.9620   -4.5580 O   0  0  0  0  0  0  0  0  0  0  0  0
  1  2  1  0
  2  3  1  0
  2  4  1  0
  2  5  1  0
  3  6  1  0
  6  7  1  0
  6  8  1  0
  6  9  1  0
M  CHG  2   4  -1   8  -1
M  END
>  <%Rank>  (780) 
59.465649

>  <N_hits>  (780) 
2

>  <submitter_name>  (780) 
nan

>  <original SMILES>  (780) 
nan

>  <∆G_unbound>  (780) 
0.654534

>  <∆G_bound>  (780) 
-5.304408

>  <regarded>  (780) 
5CMS_0_L_β,mArh-4iqy_A_0_A_β

>  <ref_pdb>  (780) 
nan

>  <smiles>  (780) 
[O-][PH](O)(O)O[PH]([O-])(O)O

>  <submitter_email>  (780) 
nan

>  <disregarded>  (780) 


>  <LE>  (780) 
-0.662105

>  <submitter_institution>  (780) 
nan

>  <ref_mols>  (780) 
5CMS_0_L,mArh-4iqy_A_0_A

>  <N_constrained_atoms>  (780) 
9.0

>  <ref_url>  (780) 
nan

>  <method>  (780) 
nan

>  <comRMSD>  (780) 
0.837107

>  <N_unconstrained_atoms>  (780) 
0.0

>  <∆∆G>  (780) 
-5.958942

>  <runtime>  (780) 
27.329036

>  <generation_date>  (780) 
nan

$$$$
5CB5_0_K_β-6WOJ_0_D_γ
     RDKit          3D

 18 18  0  0  0  0  0  0  0  0999 V2000
   -1.7020   20.9130   -8.6800 O   0  0  0  0  0  0  0  0  0  0  0  0
   -0.6360   19.8620   -7.9580 P   0  0  0  0  0  0  0  0  0  0  0  0
   -0.6320   19.6890   -6.3760 O   0  0  0  0  0  0  0  0  0  0  0  0
    0.2370   18.8390   -8.8510 O   0  0  0  0  0  0  0  0  0  0  0  0
    0.4960   20.8230   -7.9960 O   0  0  0  0  0  0  0  0  0  0  0  0
   -1.6460   18.5150   -5.9340 P   0  0  0  0  0  0  0  0  0  0  0  0
   -0.6190   17.4240   -6.2850 O   0  0  0  0  0  0  0  0  0  0  0  0
   -2.6470   17.8440   -7.1140 O   0  0  0  0  0  0  0  0  0  0  0  0
   -1.8690   18.0430   -4.4760 O   0  0  0  0  0  0  0  0  0  0  0  0
    0.6390   17.4720   -5.6900 C   0  0  0  0  0  0  0  0  0  0  0  0
    0.5340   16.8790   -4.3520 C   0  0  0  0  0  0  0  0  0  0  0  0
    1.1450   15.5370   -4.1320 C   0  0  1  0  0  0  0  0  0  0  0  0
    0.7280   15.1030   -2.8670 O   0  0  0  0  0  0  0  0  0  0  0  0
    0.6880   14.4390   -5.0280 C   0  0  1  0  0  0  0  0  0  0  0  0
    1.5480   13.3480   -4.9080 O   0  0  0  0  0  0  0  0  0  0  0  0
   -0.4070   14.3360   -2.9910 C   0  0  0  0  0  0  0  0  0  0  0  0
   -0.6490   14.0790   -4.4480 C   0  0  2  0  0  0  0  0  0  0  0  0
   -0.8830   12.7200   -4.7190 O   0  0  0  0  0  0  0  0  0  0  0  0
  1  2  1  0
  2  3  1  0
  2  4  1  0
  2  5  1  0
  3  6  1  0
  6  7  1  0
  6  8  1  0
  6  9  1  0
  7 10  1  0
 10 11  1  0
 12 11  1  6
 12 13  1  0
 12 14  1  0
 14 15  1  1
 13 16  1  0
 14 17  1  0
 16 17  1  0
 17 18  1  1
M  CHG  2   4  -1   8  -1
M  END
>  <%Rank>  (781) 
59.541985

>  <N_hits>  (781) 
2

>  <submitter_name>  (781) 
nan

>  <original SMILES>  (781) 
nan

>  <∆G_unbound>  (781) 
0.600635

>  <∆G_bound>  (781) 
-8.792091

>  <regarded>  (781) 
5CB5_0_K_β,6WOJ_0_D_γ

>  <ref_pdb>  (781) 
nan

>  <smiles>  (781) 
[O-][PH](O)(O)O[PH]([O-])(O)OCCC1OCC(O)C1O

>  <submitter_email>  (781) 
nan

>  <disregarded>  (781) 


>  <LE>  (781) 
-0.521818

>  <submitter_institution>  (781) 
nan

>  <ref_mols>  (781) 
5CB5_0_K,6WOJ_0_D

>  <N_constrained_atoms>  (781) 
17.0

>  <ref_url>  (781) 
nan

>  <method>  (781) 
nan

>  <comRMSD>  (781) 
0.963361

>  <N_unconstrained_atoms>  (781) 
1.0

>  <∆∆G>  (781) 
-9.392726

>  <runtime>  (781) 
36.537653

>  <generation_date>  (781) 
nan

$$$$
mArh-x0900_1_A_α-5CMS_0_N_β
     RDKit          3D

 20 20  0  0  0  0  0  0  0  0999 V2000
   -0.9860   10.1040   -9.5370 O   0  0  0  0  0  0  0  0  0  0  0  0
   -0.7950    9.7040   -8.3630 C   0  0  0  0  0  0  0  0  0  0  0  0
    0.1540    8.7960   -7.9070 N   0  0  0  0  0  0  0  0  0  0  0  0
   -1.5730   10.1110   -7.0940 C   0  0  2  0  0  0  0  0  0  0  0  0
   -0.7290   10.9870   -6.2540 C   0  0  0  0  0  0  0  0  0  0  0  0
   -1.7420    8.6850   -6.5730 C   0  0  0  0  0  0  0  0  0  0  0  0
   -0.3430    8.0760   -6.7480 C   0  0  0  0  0  0  0  0  0  0  0  0
   -1.3060   12.0320   -5.3420 C   0  0  0  0  0  0  0  0  0  0  0  0
   -1.0950   13.4440   -5.9130 C   0  0  0  0  0  0  0  0  0  0  0  0
   -1.5810   14.5800   -5.1090 C   0  0  0  0  0  0  0  0  0  0  0  0
   -0.5240   15.6680   -4.7160 C   0  0  0  0  0  0  0  0  0  0  0  0
   -0.4900   16.6580   -5.7870 O   0  0  0  0  0  0  0  0  0  0  0  0
   -1.7480   17.7280   -5.8290 P   0  0  0  0  0  0  0  0  0  0  0  0
   -0.9970   18.8930   -6.4370 O   0  0  0  0  0  0  0  0  0  0  0  0
   -2.8740   17.8200   -6.9630 O   0  0  0  0  0  0  0  0  0  0  0  0
   -1.8840   18.6860   -4.4620 O   0  0  0  0  0  0  0  0  0  0  0  0
   -0.6880   19.4290   -7.8600 P   0  0  0  0  0  0  0  0  0  0  0  0
   -1.4380   20.8100   -8.4690 O   0  0  0  0  0  0  0  0  0  0  0  0
    0.5540   20.2250   -7.5310 O   0  0  0  0  0  0  0  0  0  0  0  0
    0.1850   18.5280   -8.9310 O   0  0  0  0  0  0  0  0  0  0  0  0
  1  2  2  0
  2  3  1  0
  2  4  1  0
  4  5  1  1
  4  6  1  0
  3  7  1  0
  6  7  1  0
  5  8  1  0
  8  9  1  0
  9 10  1  0
 10 11  1  0
 11 12  1  0
 12 13  1  0
 13 14  1  0
 13 15  1  0
 13 16  1  0
 14 17  1  0
 17 18  1  0
 17 19  1  0
 17 20  1  0
M  CHG  2  15  -1  19  -1
M  END
>  <%Rank>  (782) 
59.618321

>  <N_hits>  (782) 
2

>  <submitter_name>  (782) 
nan

>  <original SMILES>  (782) 
nan

>  <∆G_unbound>  (782) 
0.529006

>  <∆G_bound>  (782) 
-7.675184

>  <regarded>  (782) 
mArh-x0900_1_A_α,5CMS_0_N_β

>  <ref_pdb>  (782) 
nan

>  <smiles>  (782) 
O=C1NCCC1CCCCCO[PH]([O-])(O)O[PH]([O-])(O)O

>  <submitter_email>  (782) 
nan

>  <disregarded>  (782) 


>  <LE>  (782) 
-0.41021

>  <submitter_institution>  (782) 
nan

>  <ref_mols>  (782) 
mArh-x0900_1_A,5CMS_0_N

>  <N_constrained_atoms>  (782) 
15.0

>  <ref_url>  (782) 
nan

>  <method>  (782) 
nan

>  <comRMSD>  (782) 
0.724045

>  <N_unconstrained_atoms>  (782) 
5.0

>  <∆∆G>  (782) 
-8.20419

>  <runtime>  (782) 
38.582392

>  <generation_date>  (782) 
nan

$$$$
5CB5_0_K_β-mArh-5cb5_I_0_I_β
     RDKit          3D

  9  8  0  0  0  0  0  0  0  0999 V2000
   -1.9030   20.6340   -8.1010 O   0  0  0  0  0  0  0  0  0  0  0  0
   -0.3740   20.1240   -8.0910 P   0  0  0  0  0  0  0  0  0  0  0  0
   -0.3050   19.4100   -6.7750 O   0  0  0  0  0  0  0  0  0  0  0  0
    0.8450   21.1540   -7.6740 O   0  0  0  0  0  0  0  0  0  0  0  0
    0.0100   18.6710   -8.8490 O   0  0  0  0  0  0  0  0  0  0  0  0
   -1.4930   18.5350   -6.0910 P   0  0  0  0  0  0  0  0  0  0  0  0
   -0.6300   17.2890   -6.0600 O   0  0  0  0  0  0  0  0  0  0  0  0
   -2.6350   17.7770   -6.9620 O   0  0  0  0  0  0  0  0  0  0  0  0
   -1.6600   18.6080   -4.4590 O   0  0  0  0  0  0  0  0  0  0  0  0
  1  2  1  0
  2  3  1  0
  2  4  1  0
  2  5  1  0
  3  6  1  0
  6  7  1  0
  6  8  1  0
  6  9  1  0
M  CHG  2   4  -1   8  -1
M  END
>  <%Rank>  (783) 
59.694656

>  <N_hits>  (783) 
2

>  <submitter_name>  (783) 
nan

>  <original SMILES>  (783) 
nan

>  <∆G_unbound>  (783) 
0.654534

>  <∆G_bound>  (783) 
-5.799881

>  <regarded>  (783) 
5CB5_0_K_β,mArh-5cb5_I_0_I_β

>  <ref_pdb>  (783) 
nan

>  <smiles>  (783) 
[O-][PH](O)(O)O[PH]([O-])(O)O

>  <submitter_email>  (783) 
nan

>  <disregarded>  (783) 


>  <LE>  (783) 
-0.717157

>  <submitter_institution>  (783) 
nan

>  <ref_mols>  (783) 
5CB5_0_K,mArh-5cb5_I_0_I

>  <N_constrained_atoms>  (783) 
9.0

>  <ref_url>  (783) 
nan

>  <method>  (783) 
nan

>  <comRMSD>  (783) 
0.867553

>  <N_unconstrained_atoms>  (783) 
0.0

>  <∆∆G>  (783) 
-6.454415

>  <runtime>  (783) 
28.892373

>  <generation_date>  (783) 
nan

$$$$
mArh-3q6z_0_A_α-mArh-EU0144_0_A_α
     RDKit          3D

 25 26  0  0  0  0  0  0  0  0999 V2000
   -1.5250   22.1290   -7.7990 C   0  0  0  0  0  0  0  0  0  0  0  0
   -3.0060   22.2250   -8.1260 C   0  0  2  0  0  0  0  0  0  0  0  0
   -3.6360   23.6040   -7.8970 C   0  0  1  0  0  0  0  0  0  0  0  0
   -3.6220   21.3200   -7.2300 O   0  0  0  0  0  0  0  0  0  0  0  0
   -4.6000   23.8950   -8.9230 O   0  0  0  0  0  0  0  0  0  0  0  0
   -4.3500   23.5150   -6.5570 C   0  0  2  0  0  0  0  0  0  0  0  0
   -4.3870   22.0250   -6.2570 C   0  0  1  0  0  0  0  0  0  0  0  0
   -5.6750   24.0560   -6.6530 O   0  0  0  0  0  0  0  0  0  0  0  0
   -5.6560   21.5040   -6.4320 O   0  0  0  0  0  0  0  0  0  0  0  0
   -5.2590   20.4490   -7.2660 C   0  0  0  0  0  0  0  0  0  0  0  0
   -3.7690   19.9810   -7.0230 C   0  0  0  0  0  0  0  0  0  0  0  0
   -2.9250   20.1890   -5.7480 C   0  0  0  0  0  0  0  0  0  0  0  0
   -1.9030   19.0490   -5.4570 C   0  0  0  0  0  0  0  0  0  0  0  0
   -2.2560   17.5930   -5.8950 C   0  0  0  0  0  0  0  0  0  0  0  0
   -2.1760   16.5840   -4.7170 C   0  0  0  0  0  0  0  0  0  0  0  0
   -3.1490   15.3950   -4.5240 C   0  0  0  0  0  0  0  0  0  0  0  0
   -3.6880   15.2360   -3.1190 C   0  0  0  0  0  0  0  0  0  0  0  0
   -4.2400   15.1090   -2.0190 C   0  0  0  0  0  0  0  0  0  0  0  0
   -5.0490   14.9780   -0.8250 C   0  0  0  0  0  0  0  0  0  0  0  0
   -6.4020   14.7490   -0.9790 N   0  0  0  0  0  0  0  0  0  0  0  0
   -4.7550   15.0340    0.5400 C   0  0  0  0  0  0  0  0  0  0  0  0
   -3.6970   15.2090    1.3460 N   0  0  0  0  0  0  0  0  0  0  0  0
   -6.8650   14.6840    0.2500 C   0  0  0  0  0  0  0  0  0  0  0  0
   -5.9240   14.8490    1.2160 O   0  0  0  0  0  0  0  0  0  0  0  0
   -8.2460   14.4660    0.7220 C   0  0  0  0  0  0  0  0  0  0  0  0
  2  1  1  1
  2  3  1  0
  2  4  1  0
  3  5  1  6
  3  6  1  0
  4  7  1  0
  6  7  1  0
  6  8  1  6
  7  9  1  6
  9 10  1  0
 10 11  1  0
 11 12  1  0
 12 13  1  0
 13 14  1  0
 14 15  1  0
 15 16  1  0
 16 17  1  0
 17 18  3  0
 18 19  1  0
 19 20  1  0
 19 21  2  0
 21 22  1  0
 20 23  2  0
 21 24  1  0
 23 24  1  0
 23 25  1  0
M  END
>  <%Rank>  (784) 
59.770992

>  <N_hits>  (784) 
2

>  <submitter_name>  (784) 
nan

>  <original SMILES>  (784) 
nan

>  <∆G_unbound>  (784) 
0.068001

>  <∆G_bound>  (784) 
-9.318152

>  <regarded>  (784) 
mArh-3q6z_0_A_α,mArh-EU0144_0_A_α

>  <ref_pdb>  (784) 
nan

>  <smiles>  (784) 
Cc1nc(C#CCCCCCCCOC2OC(C)C(O)C2O)c(N)o1

>  <submitter_email>  (784) 
nan

>  <disregarded>  (784) 


>  <LE>  (784) 
-0.375446

>  <submitter_institution>  (784) 
nan

>  <ref_mols>  (784) 
mArh-3q6z_0_A,mArh-EU0144_0_A

>  <N_constrained_atoms>  (784) 
18.0

>  <ref_url>  (784) 
nan

>  <method>  (784) 
nan

>  <comRMSD>  (784) 
0.747953

>  <N_unconstrained_atoms>  (784) 
7.0

>  <∆∆G>  (784) 
-9.386153

>  <runtime>  (784) 
52.920219

>  <generation_date>  (784) 
nan

$$$$
6WOJ_0_C_δ-mArh-5cb5_F_1_F_α
     RDKit          3D

 27 29  0  0  0  0  0  0  0  0999 V2000
   -4.0470   14.7530    0.9050 N   0  0  0  0  0  0  0  0  0  0  0  0
   -2.7170   15.3300    0.7630 C   0  0  2  0  0  0  0  0  0  0  0  0
   -2.1620   15.5180   -0.6820 C   0  0  1  0  0  0  0  0  0  0  0  0
   -1.8740   14.4130    1.5250 N   0  0  0  0  0  0  0  0  0  0  0  0
   -1.6380   14.1600   -1.0700 C   0  0  1  0  0  0  0  0  0  0  0  0
   -2.9580   15.9210   -1.8530 N   0  0  0  0  0  0  0  0  0  0  0  0
   -0.4940   14.3370    1.0370 C   0  0  0  0  0  0  0  0  0  0  0  0
   -1.4770   14.2370   -2.5230 N   0  0  0  0  0  0  0  0  0  0  0  0
   -2.1210   15.4840   -2.9970 C   0  0  2  0  0  0  0  0  0  0  0  0
   -0.4170   13.8860   -0.3560 N   0  0  0  0  0  0  0  0  0  0  0  0
   -1.0150   16.4200   -3.6370 C   0  0  0  0  0  0  0  0  0  0  0  0
   -1.1720   17.7760   -4.4390 C   0  0  0  0  0  0  0  0  0  0  0  0
   -1.8400   17.9490   -5.8230 C   0  0  0  0  0  0  0  0  0  0  0  0
   -1.8670   19.4200   -6.3630 C   0  0  0  0  0  0  0  0  0  0  0  0
   -3.0540   20.3120   -5.8960 C   0  0  0  0  0  0  0  0  0  0  0  0
   -3.0830   21.6090   -6.4600 O   0  0  0  0  0  0  0  0  0  0  0  0
   -4.2180   21.9400   -7.2680 C   0  0  1  0  0  0  0  0  0  0  0  0
   -3.9420   23.3680   -7.7640 C   0  0  2  0  0  0  0  0  0  0  0  0
   -4.2010   21.1580   -8.4420 O   0  0  0  0  0  0  0  0  0  0  0  0
   -4.9910   24.2880   -7.7290 O   0  0  0  0  0  0  0  0  0  0  0  0
   -3.1720   21.7480   -9.1870 C   0  0  1  0  0  0  0  0  0  0  0  0
   -3.5870   23.2000   -9.1740 C   0  0  1  0  0  0  0  0  0  0  0  0
   -1.8310   21.4590   -8.5200 C   0  0  0  0  0  0  0  0  0  0  0  0
   -4.6490   23.4860  -10.0780 O   0  0  0  0  0  0  0  0  0  0  0  0
   -5.1890   24.3610   -6.4470 C   0  0  0  0  0  0  0  0  0  0  0  0
   -4.4940   25.5240   -5.8360 C   0  0  0  0  0  0  0  0  0  0  0  0
   -5.8100   23.5210   -5.8970 O   0  0  0  0  0  0  0  0  0  0  0  0
  2  1  1  6
  2  3  1  0
  2  4  1  0
  3  5  1  0
  3  6  1  6
  4  7  1  0
  5  8  1  6
  6  9  1  0
  8  9  1  0
  5 10  1  0
  7 10  1  0
  9 11  1  1
 11 12  1  0
 12 13  1  0
 13 14  1  0
 14 15  1  0
 15 16  1  0
 17 16  1  1
 17 18  1  0
 17 19  1  0
 18 20  1  6
 19 21  1  0
 18 22  1  0
 21 22  1  0
 21 23  1  1
 22 24  1  6
 20 25  1  0
 25 26  1  0
 25 27  2  0
M  END
>  <%Rank>  (785) 
59.847328

>  <N_hits>  (785) 
2

>  <submitter_name>  (785) 
nan

>  <original SMILES>  (785) 
nan

>  <∆G_unbound>  (785) 
2.249722

>  <∆G_bound>  (785) 
-4.975819

>  <regarded>  (785) 
6WOJ_0_C_δ,mArh-5cb5_F_1_F_α

>  <ref_pdb>  (785) 
nan

>  <smiles>  (785) 
CC(=O)OC1C(OCCCCCC2NC3NCNC(N)C3N2)OC(C)C1O

>  <submitter_email>  (785) 
nan

>  <disregarded>  (785) 


>  <LE>  (785) 
-0.267613

>  <submitter_institution>  (785) 
nan

>  <ref_mols>  (785) 
6WOJ_0_C,mArh-5cb5_F_1_F

>  <N_constrained_atoms>  (785) 
22.0

>  <ref_url>  (785) 
nan

>  <method>  (785) 
nan

>  <comRMSD>  (785) 
0.85011

>  <N_unconstrained_atoms>  (785) 
5.0

>  <∆∆G>  (785) 
-7.225542

>  <runtime>  (785) 
39.493643

>  <generation_date>  (785) 
nan

$$$$
5CB5_0_R_δ-mArh-x0962_3_A_α
     RDKit          3D

 22 24  0  0  0  0  0  0  0  0999 V2000
   -4.1130   15.0100    1.7110 N   0  0  0  0  0  0  0  0  0  0  0  0
   -2.9630   15.4210    0.9510 C   0  0  2  0  0  0  0  0  0  0  0  0
   -3.0370   15.1060   -0.5500 C   0  0  1  0  0  0  0  0  0  0  0  0
   -1.7960   14.7870    1.5430 N   0  0  0  0  0  0  0  0  0  0  0  0
   -1.7650   14.3760   -0.9610 C   0  0  1  0  0  0  0  0  0  0  0  0
   -4.0050   14.2280   -1.1710 N   0  0  0  0  0  0  0  0  0  0  0  0
   -0.5450   15.2310    0.9300 C   0  0  0  0  0  0  0  0  0  0  0  0
   -1.9720   14.5090   -2.3870 N   0  0  0  0  0  0  0  0  0  0  0  0
   -3.4270   14.2860   -2.5320 C   0  0  0  0  0  0  0  0  0  0  0  0
   -0.5190   14.9440   -0.4910 N   0  0  0  0  0  0  0  0  0  0  0  0
   -1.1480   13.6130   -3.1850 C   0  0  0  0  0  0  0  0  0  0  0  0
    0.2150   14.2210   -3.5660 C   0  0  0  0  0  0  0  0  0  0  0  0
    1.1490   13.2850   -4.3390 C   0  0  0  0  0  0  0  0  0  0  0  0
    0.7880   13.1640   -5.8190 C   0  0  0  0  0  0  0  0  0  0  0  0
    1.0480   11.7780   -6.4190 C   0  0  0  0  0  0  0  0  0  0  0  0
    0.3590   11.2980   -7.7140 C   0  0  1  0  0  0  0  0  0  0  0  0
    1.1850   11.2000   -8.8840 N   0  0  0  0  0  0  0  0  0  0  0  0
   -0.3250   10.0070   -7.5770 C   0  0  0  0  0  0  0  0  0  0  0  0
    0.0760    8.8640   -8.2260 N   0  0  0  0  0  0  0  0  0  0  0  0
   -1.4230    9.6360   -6.8530 C   0  0  0  0  0  0  0  0  0  0  0  0
   -0.7870    7.8740   -7.8690 C   0  0  0  0  0  0  0  0  0  0  0  0
   -1.7060    8.3100   -7.0400 N   0  0  0  0  0  0  0  0  0  0  0  0
  2  1  1  1
  2  3  1  0
  2  4  1  0
  3  5  1  0
  3  6  1  1
  4  7  1  0
  5  8  1  0
  6  9  1  0
  8  9  1  0
  5 10  1  1
  7 10  1  0
  8 11  1  0
 11 12  1  0
 12 13  1  0
 13 14  1  0
 14 15  1  0
 15 16  1  0
 16 17  1  6
 16 18  1  0
 18 19  1  0
 18 20  2  0
 19 21  1  0
 20 22  1  0
 21 22  2  0
M  END
>  <%Rank>  (786) 
59.923664

>  <N_hits>  (786) 
2

>  <submitter_name>  (786) 
nan

>  <original SMILES>  (786) 
nan

>  <∆G_unbound>  (786) 
1.818798

>  <∆G_bound>  (786) 
-3.051269

>  <regarded>  (786) 
5CB5_0_R_δ,mArh-x0962_3_A_α

>  <ref_pdb>  (786) 
nan

>  <smiles>  (786) 
NC(CCCCCN1CNC2C(N)NCNC21)c1cnc[nH]1

>  <submitter_email>  (786) 
nan

>  <disregarded>  (786) 


>  <LE>  (786) 
-0.221367

>  <submitter_institution>  (786) 
nan

>  <ref_mols>  (786) 
5CB5_0_R,mArh-x0962_3_A

>  <N_constrained_atoms>  (786) 
17.0

>  <ref_url>  (786) 
nan

>  <method>  (786) 
nan

>  <comRMSD>  (786) 
0.697379

>  <N_unconstrained_atoms>  (786) 
5.0

>  <∆∆G>  (786) 
-4.870067

>  <runtime>  (786) 
33.511838

>  <generation_date>  (786) 
nan

$$$$
5CMS_0_O_α-5DUS_0_A_γ
     RDKit          3D

 23 24  0  0  0  0  0  0  0  0999 V2000
    0.4980   22.8780   -9.6000 C   0  0  0  0  0  0  0  0  0  0  0  0
   -0.3110   23.2990  -10.8280 C   0  0  1  0  0  0  0  0  0  0  0  0
   -1.2370   22.2380  -11.1200 O   0  0  0  0  0  0  0  0  0  0  0  0
   -1.2210   24.5150  -10.5680 C   0  0  1  0  0  0  0  0  0  0  0  0
   -1.0800   25.4710  -11.6220 O   0  0  0  0  0  0  0  0  0  0  0  0
   -2.0960   22.5780  -10.0990 C   0  0  1  0  0  0  0  0  0  0  0  0
   -2.6320   23.8780  -10.5380 C   0  0  2  0  0  0  0  0  0  0  0  0
   -2.8870   21.5770   -9.5660 O   0  0  0  0  0  0  0  0  0  0  0  0
   -3.3380   23.9880  -11.7610 O   0  0  0  0  0  0  0  0  0  0  0  0
   -1.8270   21.0190   -8.7890 C   0  0  0  0  0  0  0  0  0  0  0  0
   -2.2110   20.6180   -7.3950 C   0  0  0  0  0  0  0  0  0  0  0  0
   -1.3710   19.4250   -6.9830 C   0  0  0  0  0  0  0  0  0  0  0  0
   -1.9780   18.6880   -5.8230 C   0  0  0  0  0  0  0  0  0  0  0  0
   -0.9220   18.1830   -4.8600 C   0  0  0  0  0  0  0  0  0  0  0  0
    0.4290   17.8100   -5.4700 C   0  0  0  0  0  0  0  0  0  0  0  0
    0.9900   16.5060   -4.9270 C   0  0  0  0  0  0  0  0  0  0  0  0
   -0.0440   15.5550   -4.3670 C   0  0  2  0  0  0  0  0  0  0  0  0
    0.1300   15.2990   -2.9660 O   0  0  0  0  0  0  0  0  0  0  0  0
   -0.2370   14.1880   -4.9710 C   0  0  1  0  0  0  0  0  0  0  0  0
    0.8910   13.3280   -4.9020 O   0  0  0  0  0  0  0  0  0  0  0  0
   -0.7810   14.2220   -2.6830 C   0  0  0  0  0  0  0  0  0  0  0  0
   -1.3640   13.7900   -4.0320 C   0  0  2  0  0  0  0  0  0  0  0  0
   -1.6890   12.4160   -4.1240 O   0  0  0  0  0  0  0  0  0  0  0  0
  2  1  1  1
  2  3  1  0
  2  4  1  0
  4  5  1  6
  3  6  1  0
  4  7  1  0
  6  7  1  0
  6  8  1  6
  7  9  1  6
  8 10  1  0
 10 11  1  0
 11 12  1  0
 12 13  1  0
 13 14  1  0
 14 15  1  0
 15 16  1  0
 17 16  1  6
 17 18  1  0
 17 19  1  0
 19 20  1  1
 18 21  1  0
 19 22  1  0
 21 22  1  0
 22 23  1  1
M  END
>  <%Rank>  (787) 
60.0

>  <N_hits>  (787) 
2

>  <submitter_name>  (787) 
nan

>  <original SMILES>  (787) 
nan

>  <∆G_unbound>  (787) 
1.293032

>  <∆G_bound>  (787) 
-8.585166

>  <regarded>  (787) 
5CMS_0_O_α,5DUS_0_A_γ

>  <ref_pdb>  (787) 
nan

>  <smiles>  (787) 
CC1OC(OCCCCCCCC2OCC(O)C2O)C(O)C1O

>  <submitter_email>  (787) 
nan

>  <disregarded>  (787) 


>  <LE>  (787) 
-0.429487

>  <submitter_institution>  (787) 
nan

>  <ref_mols>  (787) 
5CMS_0_O,5DUS_0_A

>  <N_constrained_atoms>  (787) 
17.0

>  <ref_url>  (787) 
nan

>  <method>  (787) 
nan

>  <comRMSD>  (787) 
0.77263

>  <N_unconstrained_atoms>  (787) 
6.0

>  <∆∆G>  (787) 
-9.878197

>  <runtime>  (787) 
54.099469

>  <generation_date>  (787) 
nan

$$$$
mArh-x0805_0_A_α-mArh-5mqx_0_A_γ
     RDKit          3D

 16 17  0  0  0  0  0  0  0  0999 V2000
   -3.8060   15.7630    0.1380 O   0  0  0  0  0  0  0  0  0  0  0  0
   -4.5240   15.1000    1.1620 C   0  0  0  0  0  0  0  0  0  0  0  0
   -3.6680   15.1320   -1.0620 C   0  0  0  0  0  0  0  0  0  0  0  0
   -4.6750   14.6620   -1.9160 C   0  0  0  0  0  0  0  0  0  0  0  0
   -2.3520   14.9720   -1.4270 C   0  0  0  0  0  0  0  0  0  0  0  0
   -2.0260   14.3820   -2.6010 C   0  0  0  0  0  0  0  0  0  0  0  0
   -4.3380   14.0410   -3.1290 C   0  0  0  0  0  0  0  0  0  0  0  0
   -2.9950   13.9110   -3.4600 C   0  0  0  0  0  0  0  0  0  0  0  0
   -2.4200   13.2810   -4.6500 C   0  0  0  0  0  0  0  0  0  0  0  0
   -1.4450   12.5550   -3.7630 C   0  0  2  0  0  0  0  0  0  0  0  0
   -0.3180   13.3170   -3.3320 O   0  0  0  0  0  0  0  0  0  0  0  0
   -0.8890   11.1960   -3.9550 C   0  0  1  0  0  0  0  0  0  0  0  0
    0.2550   11.1260   -4.7770 O   0  0  0  0  0  0  0  0  0  0  0  0
    0.0350   12.5240   -2.1850 C   0  0  0  0  0  0  0  0  0  0  0  0
   -0.5560   11.1280   -2.4630 C   0  0  2  0  0  0  0  0  0  0  0  0
    0.4140   10.1210   -2.2220 O   0  0  0  0  0  0  0  0  0  0  0  0
  1  2  1  0
  1  3  1  0
  3  4  2  0
  3  5  1  0
  5  6  2  0
  4  7  1  0
  6  8  1  0
  7  8  2  0
  8  9  1  0
 10  9  1  6
 10 11  1  0
 10 12  1  0
 12 13  1  6
 11 14  1  0
 12 15  1  0
 14 15  1  0
 15 16  1  6
M  END
>  <%Rank>  (788) 
60.076336

>  <N_hits>  (788) 
2

>  <submitter_name>  (788) 
nan

>  <original SMILES>  (788) 
nan

>  <∆G_unbound>  (788) 
0.342027

>  <∆G_bound>  (788) 
-4.403578

>  <regarded>  (788) 
mArh-x0805_0_A_α,mArh-5mqx_0_A_γ

>  <ref_pdb>  (788) 
nan

>  <smiles>  (788) 
COc1ccc(CC2OCC(O)C2O)cc1

>  <submitter_email>  (788) 
nan

>  <disregarded>  (788) 


>  <LE>  (788) 
-0.2966

>  <submitter_institution>  (788) 
nan

>  <ref_mols>  (788) 
mArh-x0805_0_A,mArh-5mqx_0_A

>  <N_constrained_atoms>  (788) 
16.0

>  <ref_url>  (788) 
nan

>  <method>  (788) 
nan

>  <comRMSD>  (788) 
0.860639

>  <N_unconstrained_atoms>  (788) 
0.0

>  <∆∆G>  (788) 
-4.745605

>  <runtime>  (788) 
31.780584

>  <generation_date>  (788) 
nan

$$$$
5DUS_0_A_δ-mArh-x0592_0_A_α
     RDKit          3D

 20 22  0  0  0  0  0  0  0  0999 V2000
   -3.3450   15.5220    1.2530 N   0  0  0  0  0  0  0  0  0  0  0  0
   -3.8240   15.7200    0.0060 C   0  0  0  0  0  0  0  0  0  0  0  0
   -3.1420   16.1380   -0.9160 O   0  0  0  0  0  0  0  0  0  0  0  0
   -2.3850   14.5220    1.1980 C   0  0  1  0  0  0  0  0  0  0  0  0
   -2.2790   14.0350   -0.2540 C   0  0  2  0  0  0  0  0  0  0  0  0
   -1.2080   15.2340    1.5590 N   0  0  0  0  0  0  0  0  0  0  0  0
   -5.1830   15.3330   -0.1280 C   0  0  0  0  0  0  0  0  0  0  0  0
   -1.1100   14.7980   -0.8240 C   0  0  2  0  0  0  0  0  0  0  0  0
   -3.3250   14.2980   -1.2630 N   0  0  0  0  0  0  0  0  0  0  0  0
    0.0040   14.5610    1.2070 C   0  0  0  0  0  0  0  0  0  0  0  0
   -6.0050   15.3930   -1.2720 C   0  0  0  0  0  0  0  0  0  0  0  0
   -5.9800   14.8150    0.8510 C   0  0  0  0  0  0  0  0  0  0  0  0
   -1.1990   14.4880   -2.2260 N   0  0  0  0  0  0  0  0  0  0  0  0
   -2.6180   14.6780   -2.4850 C   0  0  0  0  0  0  0  0  0  0  0  0
    0.0980   14.3360   -0.2230 N   0  0  0  0  0  0  0  0  0  0  0  0
   -7.2420   14.9500   -1.0240 N   0  0  0  0  0  0  0  0  0  0  0  0
   -7.1890   14.6110    0.2840 N   0  0  0  0  0  0  0  0  0  0  0  0
   -8.3450   14.0910    0.9710 C   0  0  0  0  0  0  0  0  0  0  0  0
   -8.0470   13.8900    2.4620 C   0  0  0  0  0  0  0  0  0  0  0  0
   -7.3050   14.9760    3.0250 O   0  0  0  0  0  0  0  0  0  0  0  0
  1  2  1  0
  2  3  2  0
  4  1  1  6
  4  5  1  0
  4  6  1  0
  2  7  1  0
  5  8  1  0
  5  9  1  6
  6 10  1  0
  7 11  1  0
  7 12  2  0
  8 13  1  6
  9 14  1  0
 13 14  1  0
  8 15  1  0
 10 15  1  0
 11 16  2  0
 12 17  1  0
 16 17  1  0
 17 18  1  0
 18 19  1  0
 19 20  1  0
M  END
>  <%Rank>  (789) 
60.152672

>  <N_hits>  (789) 
2

>  <submitter_name>  (789) 
nan

>  <original SMILES>  (789) 
nan

>  <∆G_unbound>  (789) 
1.372818

>  <∆G_bound>  (789) 
1.299333

>  <regarded>  (789) 
5DUS_0_A_δ,mArh-x0592_0_A_α

>  <ref_pdb>  (789) 
nan

>  <smiles>  (789) 
O=C(NC1NCNC2NCNC21)c1cnn(CCO)c1

>  <submitter_email>  (789) 
nan

>  <disregarded>  (789) 


>  <LE>  (789) 
-0.003674

>  <submitter_institution>  (789) 
nan

>  <ref_mols>  (789) 
5DUS_0_A,mArh-x0592_0_A

>  <N_constrained_atoms>  (789) 
20.0

>  <ref_url>  (789) 
nan

>  <method>  (789) 
nan

>  <comRMSD>  (789) 
0.798393

>  <N_unconstrained_atoms>  (789) 
0.0

>  <∆∆G>  (789) 
-0.073485

>  <runtime>  (789) 
36.886998

>  <generation_date>  (789) 
nan

$$$$
mArh-5cb5_J_2_J_γ-mArh-5cb5_F_1_F_α
     RDKit          3D

 24 25  0  0  0  0  0  0  0  0999 V2000
   -0.6580   12.5710   -4.1570 O   0  0  0  0  0  0  0  0  0  0  0  0
   -0.8460   13.9800   -4.1250 C   0  0  1  0  0  0  0  0  0  0  0  0
   -0.7220   14.5130   -2.7100 C   0  0  0  0  0  0  0  0  0  0  0  0
    0.2440   14.7140   -4.9040 C   0  0  2  0  0  0  0  0  0  0  0  0
    1.2990   13.7580   -5.1350 O   0  0  0  0  0  0  0  0  0  0  0  0
   -0.0360   15.7620   -2.7660 O   0  0  0  0  0  0  0  0  0  0  0  0
    0.7150   15.8530   -3.9800 C   0  0  2  0  0  0  0  0  0  0  0  0
    0.5660   17.2890   -4.5060 C   0  0  0  0  0  0  0  0  0  0  0  0
    0.6350   17.3480   -6.0030 C   0  0  0  0  0  0  0  0  0  0  0  0
    0.6580   18.7210   -6.6460 C   0  0  0  0  0  0  0  0  0  0  0  0
   -0.7290   19.3170   -6.8590 C   0  0  0  0  0  0  0  0  0  0  0  0
   -0.7360   20.2010   -8.1030 C   0  0  0  0  0  0  0  0  0  0  0  0
   -1.5610   21.4710   -7.9250 C   0  0  0  0  0  0  0  0  0  0  0  0
   -2.8300   21.5630   -8.7650 C   0  0  2  0  0  0  0  0  0  0  0  0
   -3.3050   22.9630   -8.9800 C   0  0  1  0  0  0  0  0  0  0  0  0
   -3.9140   20.8770   -8.0800 O   0  0  0  0  0  0  0  0  0  0  0  0
   -4.1380   23.1000  -10.1350 O   0  0  0  0  0  0  0  0  0  0  0  0
   -4.0720   23.1800   -7.7650 C   0  0  2  0  0  0  0  0  0  0  0  0
   -4.8500   21.8540   -7.6560 C   0  0  2  0  0  0  0  0  0  0  0  0
   -4.8880   24.2440   -8.1480 O   0  0  0  0  0  0  0  0  0  0  0  0
   -5.2880   21.5730   -6.3200 O   0  0  0  0  0  0  0  0  0  0  0  0
   -5.9610   24.1810   -7.4880 C   0  0  0  0  0  0  0  0  0  0  0  0
   -7.0910   24.4730   -8.4190 C   0  0  0  0  0  0  0  0  0  0  0  0
   -5.9280   23.9100   -6.3140 O   0  0  0  0  0  0  0  0  0  0  0  0
  2  1  1  1
  2  3  1  0
  2  4  1  0
  4  5  1  1
  3  6  1  0
  4  7  1  0
  6  7  1  0
  7  8  1  6
  8  9  1  0
  9 10  1  0
 10 11  1  0
 11 12  1  0
 12 13  1  0
 14 13  1  1
 14 15  1  0
 14 16  1  0
 15 17  1  6
 15 18  1  0
 16 19  1  0
 18 19  1  0
 18 20  1  6
 19 21  1  1
 20 22  1  0
 22 23  1  0
 22 24  2  0
M  END
>  <%Rank>  (790) 
60.229008

>  <N_hits>  (790) 
2

>  <submitter_name>  (790) 
nan

>  <original SMILES>  (790) 
nan

>  <∆G_unbound>  (790) 
0.849064

>  <∆G_bound>  (790) 
-8.56222

>  <regarded>  (790) 
mArh-5cb5_J_2_J_γ,mArh-5cb5_F_1_F_α

>  <ref_pdb>  (790) 
nan

>  <smiles>  (790) 
CC(=O)OC1C(O)OC(CCCCCCC2OCC(O)C2O)C1O

>  <submitter_email>  (790) 
nan

>  <disregarded>  (790) 


>  <LE>  (790) 
-0.392137

>  <submitter_institution>  (790) 
nan

>  <ref_mols>  (790) 
mArh-5cb5_J_2_J,mArh-5cb5_F_1_F

>  <N_constrained_atoms>  (790) 
20.0

>  <ref_url>  (790) 
nan

>  <method>  (790) 
nan

>  <comRMSD>  (790) 
0.893581

>  <N_unconstrained_atoms>  (790) 
4.0

>  <∆∆G>  (790) 
-9.411284

>  <runtime>  (790) 
38.081366

>  <generation_date>  (790) 
nan

$$$$
mArh-5cms_O_14_O_β-5MQX_0_A_δ
     RDKit          3D

 22 23  0  0  0  0  0  0  0  0999 V2000
   -1.4880   20.4740   -8.1860 O   0  0  0  0  0  0  0  0  0  0  0  0
   -0.1560   19.7420   -7.7060 P   0  0  0  0  0  0  0  0  0  0  0  0
   -0.4480   18.8970   -6.3970 O   0  0  0  0  0  0  0  0  0  0  0  0
    1.0260   20.6500   -7.5810 O   0  0  0  0  0  0  0  0  0  0  0  0
    0.0040   18.6450   -8.8410 O   0  0  0  0  0  0  0  0  0  0  0  0
   -1.8810   18.3250   -6.0270 P   0  0  2  0  0  0  0  0  0  0  0  0
   -1.7380   17.6560   -4.5680 O   0  0  0  0  0  0  0  0  0  0  0  0
   -2.5510   17.4330   -6.9960 O   0  0  0  0  0  0  0  0  0  0  0  0
   -2.6990   19.6560   -5.7110 O   0  0  0  0  0  0  0  0  0  0  0  0
   -2.1140   16.2810   -4.4240 C   0  0  0  0  0  0  0  0  0  0  0  0
   -2.0040   15.7060   -2.9960 C   0  0  0  0  0  0  0  0  0  0  0  0
   -1.7770   14.1690   -2.9810 C   0  0  0  0  0  0  0  0  0  0  0  0
   -2.1500   13.4630   -1.7200 N   0  0  0  0  0  0  0  0  0  0  0  0
   -1.8270   14.1350   -0.4640 C   0  0  1  0  0  0  0  0  0  0  0  0
   -3.6020   13.2010   -1.6320 C   0  0  0  0  0  0  0  0  0  0  0  0
   -3.0630   14.0350    0.4050 C   0  0  2  0  0  0  0  0  0  0  0  0
   -4.1770   13.9580   -0.5220 N   0  0  0  0  0  0  0  0  0  0  0  0
   -0.6230   13.7050    0.1900 N   0  0  0  0  0  0  0  0  0  0  0  0
   -0.6090   14.2420    1.5250 C   0  0  0  0  0  0  0  0  0  0  0  0
   -2.9080   15.3020    1.1770 C   0  0  1  0  0  0  0  0  0  0  0  0
   -3.8970   15.5490    2.2060 N   0  0  0  0  0  0  0  0  0  0  0  0
   -1.5870   15.3080    1.7470 N   0  0  0  0  0  0  0  0  0  0  0  0
  1  2  1  0
  2  3  1  0
  2  4  2  0
  2  5  1  0
  3  6  1  0
  6  7  1  0
  6  8  2  0
  6  9  1  1
  7 10  1  0
 10 11  1  0
 11 12  1  0
 12 13  1  0
 13 14  1  0
 13 15  1  0
 14 16  1  0
 15 17  1  0
 16 17  1  6
 14 18  1  1
 18 19  1  0
 16 20  1  0
 20 21  1  1
 19 22  1  0
 20 22  1  0
M  END
>  <%Rank>  (791) 
60.305344

>  <N_hits>  (791) 
2

>  <submitter_name>  (791) 
nan

>  <original SMILES>  (791) 
nan

>  <∆G_unbound>  (791) 
1.220428

>  <∆G_bound>  (791) 
-9.226083

>  <regarded>  (791) 
mArh-5cms_O_14_O_β,5MQX_0_A_δ

>  <ref_pdb>  (791) 
nan

>  <smiles>  (791) 
NC1NCNC2C1NCN2CCCOP(=O)(O)OP(=O)(O)O

>  <submitter_email>  (791) 
nan

>  <disregarded>  (791) 


>  <LE>  (791) 
-0.474841

>  <submitter_institution>  (791) 
nan

>  <ref_mols>  (791) 
mArh-5cms_O_14_O,5MQX_0_A

>  <N_constrained_atoms>  (791) 
19.0

>  <ref_url>  (791) 
nan

>  <method>  (791) 
nan

>  <comRMSD>  (791) 
0.936898

>  <N_unconstrained_atoms>  (791) 
3.0

>  <∆∆G>  (791) 
-10.446511

>  <runtime>  (791) 
26.386863

>  <generation_date>  (791) 
nan

$$$$
mArh-x0910_1_A_α-5CB5_0_B_β
     RDKit          3D

 19 19  0  0  0  0  0  0  0  0999 V2000
   -7.6460   14.1530    1.5730 N   0  0  0  0  0  0  0  0  0  0  0  0
   -6.6050   14.5390    0.6810 C   0  0  0  0  0  0  0  0  0  0  0  0
   -6.6060   14.4810   -0.6530 N   0  0  0  0  0  0  0  0  0  0  0  0
   -5.3920   15.0470    1.0060 N   0  0  0  0  0  0  0  0  0  0  0  0
   -5.4600   14.9240   -1.1450 N   0  0  0  0  0  0  0  0  0  0  0  0
   -4.6830   15.2920   -0.1090 C   0  0  0  0  0  0  0  0  0  0  0  0
   -5.2250   14.9580   -2.5680 C   0  0  0  0  0  0  0  0  0  0  0  0
   -3.9110   14.4530   -3.1080 C   0  0  0  0  0  0  0  0  0  0  0  0
   -2.9460   15.6230   -3.3090 C   0  0  0  0  0  0  0  0  0  0  0  0
   -2.8030   16.1800   -4.7110 C   0  0  0  0  0  0  0  0  0  0  0  0
   -2.2970   17.5600   -4.7240 O   0  0  0  0  0  0  0  0  0  0  0  0
   -1.5560   17.7440   -6.0450 P   0  0  0  0  0  0  0  0  0  0  0  0
   -1.2140   19.3340   -6.1620 O   0  0  0  0  0  0  0  0  0  0  0  0
   -0.4010   16.6730   -5.4770 O   0  0  0  0  0  0  0  0  0  0  0  0
   -2.8420   17.1930   -6.8110 O   0  0  0  0  0  0  0  0  0  0  0  0
   -0.8980   19.7190   -7.6930 P   0  0  0  0  0  0  0  0  0  0  0  0
   -1.6680   20.9680   -8.4680 O   0  0  0  0  0  0  0  0  0  0  0  0
    0.3270   20.6020   -7.4640 O   0  0  0  0  0  0  0  0  0  0  0  0
    0.0810   18.7450   -8.6590 O   0  0  0  0  0  0  0  0  0  0  0  0
  1  2  1  0
  2  3  2  0
  2  4  1  0
  3  5  1  0
  4  6  2  0
  5  6  1  0
  5  7  1  0
  7  8  1  0
  8  9  1  0
  9 10  1  0
 10 11  1  0
 11 12  1  0
 12 13  1  0
 12 14  1  0
 12 15  1  0
 13 16  1  0
 16 17  1  0
 16 18  1  0
 16 19  1  0
M  CHG  2  15  -1  18  -1
M  END
>  <%Rank>  (792) 
60.381679

>  <N_hits>  (792) 
2

>  <submitter_name>  (792) 
nan

>  <original SMILES>  (792) 
nan

>  <∆G_unbound>  (792) 
0.339707

>  <∆G_bound>  (792) 
-7.302448

>  <regarded>  (792) 
mArh-x0910_1_A_α,5CB5_0_B_β

>  <ref_pdb>  (792) 
nan

>  <smiles>  (792) 
Nc1ncn(CCCCO[PH]([O-])(O)O[PH]([O-])(O)O)n1

>  <submitter_email>  (792) 
nan

>  <disregarded>  (792) 


>  <LE>  (792) 
-0.402219

>  <submitter_institution>  (792) 
nan

>  <ref_mols>  (792) 
mArh-x0910_1_A,5CB5_0_B

>  <N_constrained_atoms>  (792) 
15.0

>  <ref_url>  (792) 
nan

>  <method>  (792) 
nan

>  <comRMSD>  (792) 
0.759474

>  <N_unconstrained_atoms>  (792) 
4.0

>  <∆∆G>  (792) 
-7.642155

>  <runtime>  (792) 
29.906618

>  <generation_date>  (792) 
nan

$$$$
2FAV_0_B_δ-mArh-x0626_0_A_α
     RDKit          3D

 14 15  0  0  0  0  0  0  0  0999 V2000
   -4.4910   14.4390    1.1500 N   0  0  0  0  0  0  0  0  0  0  0  0
   -5.7190   14.7110    0.5580 C   0  0  0  0  0  0  0  0  0  0  0  0
   -5.8610   15.1520   -0.5750 O   0  0  0  0  0  0  0  0  0  0  0  0
   -3.2150   15.0080    0.7570 C   0  0  2  0  0  0  0  0  0  0  0  0
   -6.8820   14.3850    1.4880 C   0  0  0  0  0  0  0  0  0  0  0  0
   -2.9190   14.9920   -0.7690 C   0  0  1  0  0  0  0  0  0  0  0  0
   -2.2920   14.2220    1.5770 N   0  0  0  0  0  0  0  0  0  0  0  0
   -8.2430   14.6190    0.8430 C   0  0  0  0  0  0  0  0  0  0  0  0
   -1.4370   14.6360   -1.0690 C   0  0  2  0  0  0  0  0  0  0  0  0
   -3.6350   14.0810   -1.6700 N   0  0  0  0  0  0  0  0  0  0  0  0
   -0.9060   14.2270    1.1380 C   0  0  0  0  0  0  0  0  0  0  0  0
   -1.4670   14.0440   -2.3920 N   0  0  0  0  0  0  0  0  0  0  0  0
   -2.8220   14.2430   -2.8600 C   0  0  0  0  0  0  0  0  0  0  0  0
   -0.8750   13.6670   -0.1840 N   0  0  0  0  0  0  0  0  0  0  0  0
  1  2  1  0
  2  3  2  0
  4  1  1  6
  2  5  1  0
  4  6  1  0
  4  7  1  0
  5  8  1  0
  6  9  1  0
  6 10  1  6
  7 11  1  0
  9 12  1  6
 10 13  1  0
 12 13  1  0
  9 14  1  0
 11 14  1  0
M  END
>  <%Rank>  (793) 
60.458015

>  <N_hits>  (793) 
2

>  <submitter_name>  (793) 
nan

>  <original SMILES>  (793) 
nan

>  <∆G_unbound>  (793) 
0.687803

>  <∆G_bound>  (793) 
-1.957232

>  <regarded>  (793) 
2FAV_0_B_δ,mArh-x0626_0_A_α

>  <ref_pdb>  (793) 
nan

>  <smiles>  (793) 
CCC(=O)NC1NCNC2NCNC21

>  <submitter_email>  (793) 
nan

>  <disregarded>  (793) 


>  <LE>  (793) 
-0.188931

>  <submitter_institution>  (793) 
nan

>  <ref_mols>  (793) 
2FAV_0_B,mArh-x0626_0_A

>  <N_constrained_atoms>  (793) 
14.0

>  <ref_url>  (793) 
nan

>  <method>  (793) 
nan

>  <comRMSD>  (793) 
0.762283

>  <N_unconstrained_atoms>  (793) 
0.0

>  <∆∆G>  (793) 
-2.645035

>  <runtime>  (793) 
29.841253

>  <generation_date>  (793) 
nan

$$$$
5CMS_0_C_δ-5FUD_1_B_α
     RDKit          3D

 26 28  0  0  0  0  0  0  0  0999 V2000
   -4.0110   15.5240    1.6070 N   0  0  0  0  0  0  0  0  0  0  0  0
   -2.7290   15.3680    0.9320 C   0  0  2  0  0  0  0  0  0  0  0  0
   -2.7430   14.5870   -0.3700 C   0  0  2  0  0  0  0  0  0  0  0  0
   -1.8150   14.7300    1.8260 N   0  0  0  0  0  0  0  0  0  0  0  0
   -1.3300   14.7180   -0.9300 C   0  0  1  0  0  0  0  0  0  0  0  0
   -3.6130   14.9600   -1.4980 N   0  0  0  0  0  0  0  0  0  0  0  0
   -0.5040   14.4850    1.2450 C   0  0  0  0  0  0  0  0  0  0  0  0
   -1.4480   15.7710   -1.8910 N   0  0  0  0  0  0  0  0  0  0  0  0
   -2.7400   15.5330   -2.5160 C   0  0  1  0  0  0  0  0  0  0  0  0
   -0.3580   15.2010    0.0130 N   0  0  0  0  0  0  0  0  0  0  0  0
   -2.5710   14.7450   -3.8250 C   0  0  0  0  0  0  0  0  0  0  0  0
   -1.6270   15.4780   -4.8050 C   0  0  0  0  0  0  0  0  0  0  0  0
   -2.3380   16.6570   -5.4950 C   0  0  0  0  0  0  0  0  0  0  0  0
   -1.4480   17.8980   -5.6980 C   0  0  0  0  0  0  0  0  0  0  0  0
   -1.3130   18.1460   -7.1060 O   0  0  0  0  0  0  0  0  0  0  0  0
   -0.9810   19.5940   -7.7320 S   0  0  0  0  0  0  0  0  0  0  0  0
    0.3990   20.2690   -7.3000 O   0  0  0  0  0  0  0  0  0  0  0  0
   -0.9980   19.5320   -9.3030 O   0  0  0  0  0  0  0  0  0  0  0  0
   -2.2690   20.7000   -7.2220 C   0  0  0  0  0  0  0  0  0  0  0  0
   -2.6250   21.7350   -8.2600 C   0  0  0  0  0  0  0  0  0  0  0  0
   -3.9750   22.2690   -8.1210 N   0  0  0  0  0  0  0  0  0  0  0  0
   -4.4890   22.7530   -9.4130 C   0  0  0  0  0  0  0  0  0  0  0  0
   -4.0260   23.3970   -7.1920 C   0  0  0  0  0  0  0  0  0  0  0  0
   -5.9550   23.1520   -9.2700 C   0  0  0  0  0  0  0  0  0  0  0  0
   -5.4730   23.8170   -7.0610 C   0  0  0  0  0  0  0  0  0  0  0  0
   -6.0480   24.2150   -8.3210 O   0  0  0  0  0  0  0  0  0  0  0  0
  2  1  1  1
  2  3  1  0
  2  4  1  0
  3  5  1  0
  3  6  1  6
  4  7  1  0
  5  8  1  6
  6  9  1  0
  8  9  1  0
  5 10  1  0
  7 10  1  0
  9 11  1  6
 11 12  1  0
 12 13  1  0
 13 14  1  0
 14 15  1  0
 16 15  1  0
 16 17  1  0
 16 18  1  0
 16 19  1  0
 19 20  1  0
 20 21  1  0
 21 22  1  0
 21 23  1  0
 22 24  1  0
 23 25  1  0
 24 26  1  0
 25 26  1  0
M  END
>  <%Rank>  (794) 
60.534351

>  <N_hits>  (794) 
2

>  <submitter_name>  (794) 
nan

>  <original SMILES>  (794) 
nan

>  <∆G_unbound>  (794) 
1.092685

>  <∆G_bound>  (794) 
-9.930386

>  <regarded>  (794) 
5CMS_0_C_δ,5FUD_1_B_α

>  <ref_pdb>  (794) 
nan

>  <smiles>  (794) 
NC1NCNC2NC(CCCCOS(O)(O)CCN3CCOCC3)NC12

>  <submitter_email>  (794) 
nan

>  <disregarded>  (794) 


>  <LE>  (794) 
-0.423964

>  <submitter_institution>  (794) 
nan

>  <ref_mols>  (794) 
5CMS_0_C,5FUD_1_B

>  <N_constrained_atoms>  (794) 
22.0

>  <ref_url>  (794) 
nan

>  <method>  (794) 
nan

>  <comRMSD>  (794) 
0.960005

>  <N_unconstrained_atoms>  (794) 
4.0

>  <∆∆G>  (794) 
-11.02307

>  <runtime>  (794) 
54.384447

>  <generation_date>  (794) 
nan

$$$$
5L9K_0_B_δ-mArh-x0900_0_A_α
     RDKit          3D

 11 12  0  0  0  0  0  0  0  0999 V2000
   -4.3740   15.7410    2.1500 N   0  0  0  0  0  0  0  0  0  0  0  0
   -3.5520   14.8950    1.3150 C   0  0  1  0  0  0  0  0  0  0  0  0
   -3.6250   15.3250   -0.0920 C   0  0  1  0  0  0  0  0  0  0  0  0
   -2.2150   15.0860    1.8440 N   0  0  0  0  0  0  0  0  0  0  0  0
   -2.5560   14.5610   -0.8060 C   0  0  1  0  0  0  0  0  0  0  0  0
   -4.7710   14.9640   -0.9740 C   0  0  0  0  0  0  0  0  0  0  0  0
   -1.0610   14.6030    1.0930 C   0  0  0  0  0  0  0  0  0  0  0  0
   -5.9440   14.7290   -0.6520 O   0  0  0  0  0  0  0  0  0  0  0  0
   -2.7500   14.8960   -2.1990 N   0  0  0  0  0  0  0  0  0  0  0  0
   -4.2170   14.9330   -2.3870 C   0  0  0  0  0  0  0  0  0  0  0  0
   -1.2200   14.7970   -0.3350 N   0  0  0  0  0  0  0  0  0  0  0  0
  2  1  1  1
  2  3  1  0
  2  4  1  0
  3  5  1  0
  3  6  1  6
  4  7  1  0
  6  8  2  0
  5  9  1  6
  6 10  1  0
  9 10  1  0
  5 11  1  0
  7 11  1  0
M  END
>  <%Rank>  (795) 
60.610687

>  <N_hits>  (795) 
2

>  <submitter_name>  (795) 
nan

>  <original SMILES>  (795) 
nan

>  <∆G_unbound>  (795) 
0.407116

>  <∆G_bound>  (795) 
-1.524641

>  <regarded>  (795) 
5L9K_0_B_δ,mArh-x0900_0_A_α

>  <ref_pdb>  (795) 
nan

>  <smiles>  (795) 
NC1NCNC2NCC(=O)C12

>  <submitter_email>  (795) 
nan

>  <disregarded>  (795) 


>  <LE>  (795) 
-0.175614

>  <submitter_institution>  (795) 
nan

>  <ref_mols>  (795) 
5L9K_0_B,mArh-x0900_0_A

>  <N_constrained_atoms>  (795) 
11.0

>  <ref_url>  (795) 
nan

>  <method>  (795) 
nan

>  <comRMSD>  (795) 
0.673519

>  <N_unconstrained_atoms>  (795) 
0.0

>  <∆∆G>  (795) 
-1.931757

>  <runtime>  (795) 
20.773351

>  <generation_date>  (795) 
nan

$$$$
mArh-x0524_0_A_α-mArh-2fav_B_0_B_γ
     RDKit          3D

 27 29  0  0  0  0  0  0  0  0999 V2000
   -0.3940    8.4690   -8.1110 N   0  0  0  0  0  0  0  0  0  0  0  0
   -0.8350    9.5220   -7.3610 C   0  0  0  0  0  0  0  0  0  0  0  0
   -2.0330    9.3510   -6.4490 C   0  0  0  0  0  0  0  0  0  0  0  0
    0.6440    8.4930   -9.0620 C   0  0  0  0  0  0  0  0  0  0  0  0
   -0.1620   10.6180   -7.5070 N   0  0  0  0  0  0  0  0  0  0  0  0
    1.7600    7.6690   -8.9840 C   0  0  0  0  0  0  0  0  0  0  0  0
    0.5590    9.3820  -10.1440 C   0  0  0  0  0  0  0  0  0  0  0  0
   -0.4940   11.8440   -6.7930 C   0  0  0  0  0  0  0  0  0  0  0  0
    2.7670    7.7260   -9.9520 C   0  0  0  0  0  0  0  0  0  0  0  0
    1.5700    9.4360  -11.1170 C   0  0  0  0  0  0  0  0  0  0  0  0
   -0.2180   11.6830   -5.3010 C   0  0  0  0  0  0  0  0  0  0  0  0
    2.6920    8.6030  -11.0300 C   0  0  0  0  0  0  0  0  0  0  0  0
    3.7000    8.6590  -12.0080 N   0  0  0  0  0  0  0  0  0  0  0  0
   -0.7720   12.7530   -4.5350 O   0  0  0  0  0  0  0  0  0  0  0  0
    3.9820    9.5340  -13.0690 C   0  0  0  0  0  0  0  0  0  0  0  0
    0.2120   13.5400   -3.8580 C   0  0  2  0  0  0  0  0  0  0  0  0
    3.2090   10.6900  -13.2600 C   0  0  0  0  0  0  0  0  0  0  0  0
    5.0290    9.2900  -13.9590 C   0  0  0  0  0  0  0  0  0  0  0  0
   -0.4550   14.6600   -3.0810 C   0  0  0  0  0  0  0  0  0  0  0  0
    1.1040   14.3050   -4.8270 C   0  0  2  0  0  0  0  0  0  0  0  0
    2.3450   13.5840   -4.8760 O   0  0  0  0  0  0  0  0  0  0  0  0
    3.4780   11.5690  -14.3080 C   0  0  0  0  0  0  0  0  0  0  0  0
    5.3020   10.1670  -15.0080 C   0  0  0  0  0  0  0  0  0  0  0  0
    0.5040   15.7190   -2.9710 O   0  0  0  0  0  0  0  0  0  0  0  0
    1.3080   15.6820   -4.1610 C   0  0  2  0  0  0  0  0  0  0  0  0
    0.9070   16.8700   -5.0320 C   0  0  0  0  0  0  0  0  0  0  0  0
    4.5260   11.3070  -15.1840 C   0  0  0  0  0  0  0  0  0  0  0  0
  1  2  1  0
  2  3  1  0
  1  4  1  0
  2  5  2  3
  4  6  2  0
  4  7  1  0
  5  8  1  0
  6  9  1  0
  7 10  2  0
  8 11  1  0
  9 12  2  0
 10 12  1  0
 12 13  1  0
 11 14  1  0
 13 15  1  0
 16 14  1  6
 15 17  2  0
 15 18  1  0
 16 19  1  0
 16 20  1  0
 20 21  1  1
 17 22  1  0
 18 23  2  0
 19 24  1  0
 20 25  1  0
 24 25  1  0
 25 26  1  6
 22 27  2  0
 23 27  1  0
M  END
>  <%Rank>  (796) 
60.687023

>  <N_hits>  (796) 
2

>  <submitter_name>  (796) 
nan

>  <original SMILES>  (796) 
nan

>  <∆G_unbound>  (796) 
0.441203

>  <∆G_bound>  (796) 
-7.735686

>  <regarded>  (796) 
mArh-x0524_0_A_α,mArh-2fav_B_0_B_γ

>  <ref_pdb>  (796) 
nan

>  <smiles>  (796) 
CC(=NCCOC1COC(C)C1O)Nc1ccc(Nc2ccccc2)cc1

>  <submitter_email>  (796) 
nan

>  <disregarded>  (796) 


>  <LE>  (796) 
-0.302848

>  <submitter_institution>  (796) 
nan

>  <ref_mols>  (796) 
mArh-x0524_0_A,mArh-2fav_B_0_B

>  <N_constrained_atoms>  (796) 
25.0

>  <ref_url>  (796) 
nan

>  <method>  (796) 
nan

>  <comRMSD>  (796) 
0.998787

>  <N_unconstrained_atoms>  (796) 
2.0

>  <∆∆G>  (796) 
-8.176888

>  <runtime>  (796) 
50.872454

>  <generation_date>  (796) 
nan

$$$$
5CMS_0_N_δ-6FX7_0_A_β
     RDKit          3D

 21 22  0  0  0  0  0  0  0  0999 V2000
   -3.5850   15.5640    1.0890 N   0  0  0  0  0  0  0  0  0  0  0  0
   -2.2980   15.3610    0.4950 C   0  0  2  0  0  0  0  0  0  0  0  0
   -2.3550   14.4690   -0.7300 C   0  0  2  0  0  0  0  0  0  0  0  0
   -1.3460   14.7990    1.4340 N   0  0  0  0  0  0  0  0  0  0  0  0
   -0.9310   14.2920   -1.2760 C   0  0  1  0  0  0  0  0  0  0  0  0
   -3.0770   15.1130   -1.8050 N   0  0  0  0  0  0  0  0  0  0  0  0
   -0.0380   14.7740    0.8100 C   0  0  0  0  0  0  0  0  0  0  0  0
   -0.9730   14.6180   -2.6760 N   0  0  0  0  0  0  0  0  0  0  0  0
   -2.3170   14.9670   -3.0050 C   0  0  2  0  0  0  0  0  0  0  0  0
   -0.0900   15.2020   -0.5460 N   0  0  0  0  0  0  0  0  0  0  0  0
   -2.2590   16.2080   -3.8460 C   0  0  0  0  0  0  0  0  0  0  0  0
   -1.3310   15.9400   -5.0070 C   0  0  0  0  0  0  0  0  0  0  0  0
   -0.6450   17.0860   -5.3570 O   0  0  0  0  0  0  0  0  0  0  0  0
   -1.5000   18.2340   -6.1430 P   0  0  0  0  0  0  0  0  0  0  0  0
   -0.9780   19.6730   -6.4960 O   0  0  0  0  0  0  0  0  0  0  0  0
   -2.9450   17.6810   -6.7680 O   0  0  0  0  0  0  0  0  0  0  0  0
   -2.2590   18.7060   -4.9800 O   0  0  0  0  0  0  0  0  0  0  0  0
   -0.1600   19.9170   -7.8110 P   0  0  0  0  0  0  0  0  0  0  0  0
   -1.2480   20.6520   -8.5870 O   0  0  0  0  0  0  0  0  0  0  0  0
    0.0550   18.7340   -8.8950 O   0  0  0  0  0  0  0  0  0  0  0  0
    0.7900   21.3290   -7.9070 O   0  0  0  0  0  0  0  0  0  0  0  0
  2  1  1  1
  2  3  1  0
  2  4  1  0
  3  5  1  0
  3  6  1  6
  4  7  1  0
  5  8  1  6
  6  9  1  0
  8  9  1  0
  5 10  1  0
  7 10  1  0
  9 11  1  1
 11 12  1  0
 12 13  1  0
 13 14  1  0
 14 15  1  0
 14 16  1  0
 14 17  1  0
 15 18  1  0
 18 19  1  0
 18 20  1  0
 18 21  1  0
M  CHG  2  16  -1  20  -1
M  END
>  <%Rank>  (797) 
60.763359

>  <N_hits>  (797) 
2

>  <submitter_name>  (797) 
nan

>  <original SMILES>  (797) 
nan

>  <∆G_unbound>  (797) 
1.478176

>  <∆G_bound>  (797) 
-6.685756

>  <regarded>  (797) 
5CMS_0_N_δ,6FX7_0_A_β

>  <ref_pdb>  (797) 
nan

>  <smiles>  (797) 
NC1NCNC2NC(CCO[PH]([O-])(O)O[PH]([O-])(O)O)NC12

>  <submitter_email>  (797) 
nan

>  <disregarded>  (797) 


>  <LE>  (797) 
-0.388759

>  <submitter_institution>  (797) 
nan

>  <ref_mols>  (797) 
5CMS_0_N,6FX7_0_A

>  <N_constrained_atoms>  (797) 
19.0

>  <ref_url>  (797) 
nan

>  <method>  (797) 
nan

>  <comRMSD>  (797) 
0.927162

>  <N_unconstrained_atoms>  (797) 
2.0

>  <∆∆G>  (797) 
-8.163932

>  <runtime>  (797) 
33.49823

>  <generation_date>  (797) 
nan

$$$$
mArh-x0524_0_A_α-mArh-x0837_0_A_α
     RDKit          3D

 30 32  0  0  0  0  0  0  0  0999 V2000
   -0.4370    8.5280   -8.0640 N   0  0  0  0  0  0  0  0  0  0  0  0
   -0.7930    9.6150   -7.2110 C   0  0  0  0  0  0  0  0  0  0  0  0
   -1.9660    9.4080   -6.3380 C   0  0  0  0  0  0  0  0  0  0  0  0
    0.5870    8.6040   -9.0510 C   0  0  0  0  0  0  0  0  0  0  0  0
   -0.0990   10.7010   -7.2320 N   0  0  0  0  0  0  0  0  0  0  0  0
    1.7020    7.7810   -8.9620 C   0  0  0  0  0  0  0  0  0  0  0  0
    0.5250    9.4530  -10.1140 C   0  0  0  0  0  0  0  0  0  0  0  0
   -0.3600   11.8630   -6.4280 C   0  0  0  0  0  0  0  0  0  0  0  0
    2.6950    7.8180   -9.9080 C   0  0  0  0  0  0  0  0  0  0  0  0
    1.5460    9.4860  -11.0800 C   0  0  0  0  0  0  0  0  0  0  0  0
    0.6710   12.0600   -5.3330 C   0  0  0  0  0  0  0  0  0  0  0  0
    2.6520    8.6750  -11.0100 C   0  0  0  0  0  0  0  0  0  0  0  0
    3.7080    8.6520  -11.9520 N   0  0  0  0  0  0  0  0  0  0  0  0
    0.5310   13.4070   -4.6470 C   0  0  0  0  0  0  0  0  0  0  0  0
   -0.8900   13.8470   -4.4560 C   0  0  0  0  0  0  0  0  0  0  0  0
    3.9270    9.5490  -13.0070 C   0  0  0  0  0  0  0  0  0  0  0  0
   -1.2010   14.3600   -3.0480 C   0  0  0  0  0  0  0  0  0  0  0  0
    3.1710   10.6930  -13.2380 C   0  0  0  0  0  0  0  0  0  0  0  0
    4.9480    9.3180  -13.8900 C   0  0  0  0  0  0  0  0  0  0  0  0
   -3.2460   14.8220   -3.0060 I   0  0  0  0  0  0  0  0  0  0  0  0
    3.4400   11.5370  -14.2930 C   0  0  0  0  0  0  0  0  0  0  0  0
    5.2320   10.1530  -14.9540 C   0  0  0  0  0  0  0  0  0  0  0  0
    4.4760   11.2770  -15.1670 C   0  0  0  0  0  0  0  0  0  0  0  0
   -4.1930   15.2420   -1.1500 C   0  0  2  0  0  0  0  0  0  0  0  0
   -3.4040   15.0760    0.0470 C   0  0  0  0  0  0  0  0  0  0  0  0
   -5.4620   14.4420   -1.0560 C   0  0  0  0  0  0  0  0  0  0  0  0
   -3.9930   14.9200    1.2100 C   0  0  0  0  0  0  0  0  0  0  0  0
   -6.1990   14.7320    0.1940 C   0  0  0  0  0  0  0  0  0  0  0  0
   -7.4450   14.8200    0.2140 O   0  0  0  0  0  0  0  0  0  0  0  0
   -5.4010   14.8950    1.3780 N   0  0  0  0  0  0  0  0  0  0  0  0
  1  2  1  0
  2  3  1  0
  1  4  1  0
  2  5  2  3
  4  6  2  0
  4  7  1  0
  5  8  1  0
  6  9  1  0
  7 10  2  0
  8 11  1  0
  9 12  2  0
 10 12  1  0
 12 13  1  0
 11 14  1  0
 14 15  1  0
 13 16  1  0
 15 17  1  0
 16 18  2  0
 16 19  1  0
 17 20  1  0
 18 21  1  0
 19 22  2  0
 21 23  2  0
 22 23  1  0
 24 20  1  6
 24 25  1  0
 24 26  1  0
 25 27  2  0
 26 28  1  0
 28 29  2  0
 27 30  1  0
 28 30  1  0
M  END
>  <%Rank>  (798) 
60.839695

>  <N_hits>  (798) 
2

>  <submitter_name>  (798) 
nan

>  <original SMILES>  (798) 
nan

>  <∆G_unbound>  (798) 
0.619584

>  <∆G_bound>  (798) 
-10.777156

>  <regarded>  (798) 
mArh-x0524_0_A_α,mArh-x0837_0_A_α

>  <ref_pdb>  (798) 
nan

>  <smiles>  (798) 
CC(=NCCCCCIC1C=CNC(=O)C1)Nc1ccc(Nc2ccccc2)cc1

>  <submitter_email>  (798) 
nan

>  <disregarded>  (798) 


>  <LE>  (798) 
-0.379891

>  <submitter_institution>  (798) 
nan

>  <ref_mols>  (798) 
mArh-x0524_0_A,mArh-x0837_0_A

>  <N_constrained_atoms>  (798) 
25.0

>  <ref_url>  (798) 
nan

>  <method>  (798) 
nan

>  <comRMSD>  (798) 
0.98291

>  <N_unconstrained_atoms>  (798) 
5.0

>  <∆∆G>  (798) 
-11.396741

>  <runtime>  (798) 
42.83757

>  <generation_date>  (798) 
nan

$$$$
mArh-5cms_F_6_F_β-mArh-x0228_0_B_α
     RDKit          3D

 24 24  0  0  0  0  0  0  0  0999 V2000
   -1.6130   20.5500   -8.5070 O   0  0  0  0  0  0  0  0  0  0  0  0
   -0.2300   20.0060   -7.9390 P   0  0  0  0  0  0  0  0  0  0  0  0
   -0.5760   19.3150   -6.5620 O   0  0  0  0  0  0  0  0  0  0  0  0
    0.8620   21.0130   -7.8410 O   0  0  0  0  0  0  0  0  0  0  0  0
    0.0630   18.7320   -8.8640 O   0  0  0  0  0  0  0  0  0  0  0  0
   -1.9520   18.6820   -6.2070 P   0  0  0  0  0  0  0  0  0  0  0  0
   -2.0940   17.2400   -6.7400 O   0  0  0  0  0  0  0  0  0  0  0  0
   -3.2020   19.5530   -6.8870 N   0  0  0  0  0  0  0  0  0  0  0  0
   -1.9820   18.5200   -4.6440 O   0  0  0  0  0  0  0  0  0  0  0  0
   -3.6330   20.7580   -6.1710 C   0  0  0  0  0  0  0  0  0  0  0  0
   -3.1510   22.0480   -6.8560 C   0  0  0  0  0  0  0  0  0  0  0  0
   -3.6600   22.3070   -8.2780 C   0  0  0  0  0  0  0  0  0  0  0  0
   -5.0990   22.8130   -8.4490 C   0  0  0  0  0  0  0  0  0  0  0  0
   -5.6290   22.5920   -9.8720 C   0  0  0  0  0  0  0  0  0  0  0  0
   -6.1080   23.8370  -10.6410 C   0  0  0  0  0  0  0  0  0  0  0  0
   -6.6040   23.5430  -12.0710 C   0  0  0  0  0  0  0  0  0  0  0  0
   -7.4720   24.6120  -12.5970 N   0  0  0  0  0  0  0  0  0  0  0  0
   -7.3840   24.8270  -13.8700 C   0  0  0  0  0  0  0  0  0  0  0  0
   -8.1160   25.7890  -14.5130 N   0  0  0  0  0  0  0  0  0  0  0  0
   -9.4110   25.4790  -14.8660 N   0  0  0  0  0  0  0  0  0  0  0  0
   -9.8060   24.4490  -15.6780 C   0  0  0  0  0  0  0  0  0  0  0  0
  -10.5700   26.1090  -14.5030 C   0  0  0  0  0  0  0  0  0  0  0  0
  -11.1160   24.4520  -15.8010 N   0  0  0  0  0  0  0  0  0  0  0  0
  -11.6010   25.5040  -15.0550 N   0  0  0  0  0  0  0  0  0  0  0  0
  1  2  1  0
  2  3  1  0
  2  4  2  0
  2  5  1  0
  3  6  1  0
  6  7  1  0
  6  8  2  3
  6  9  1  0
  8 10  1  0
 10 11  1  0
 11 12  1  0
 12 13  1  0
 13 14  1  0
 14 15  1  0
 15 16  1  0
 16 17  1  0
 17 18  2  3
 18 19  1  0
 19 20  1  0
 20 21  1  0
 20 22  1  0
 21 23  2  0
 22 24  2  0
 23 24  1  0
M  END
>  <%Rank>  (799) 
60.916031

>  <N_hits>  (799) 
2

>  <submitter_name>  (799) 
nan

>  <original SMILES>  (799) 
nan

>  <∆G_unbound>  (799) 
0.546789

>  <∆G_bound>  (799) 
-11.0619

>  <regarded>  (799) 
mArh-5cms_F_6_F_β,mArh-x0228_0_B_α

>  <ref_pdb>  (799) 
nan

>  <smiles>  (799) 
O=P(O)(O)OP(O)(O)=NCCCCCCCN=CNn1cnnc1

>  <submitter_email>  (799) 
nan

>  <disregarded>  (799) 


>  <LE>  (799) 
-0.483695

>  <submitter_institution>  (799) 
nan

>  <ref_mols>  (799) 
mArh-5cms_F_6_F,mArh-x0228_0_B

>  <N_constrained_atoms>  (799) 
17.0

>  <ref_url>  (799) 
nan

>  <method>  (799) 
nan

>  <comRMSD>  (799) 
0.785926

>  <N_unconstrained_atoms>  (799) 
7.0

>  <∆∆G>  (799) 
-11.60869

>  <runtime>  (799) 
43.07332

>  <generation_date>  (799) 
nan

$$$$
mArh-5dus_0_A_γ-5CMS_0_G_α
     RDKit          3D

 16 16  0  0  0  0  0  0  0  0999 V2000
   -1.8840   13.0520   -4.1010 O   0  0  0  0  0  0  0  0  0  0  0  0
   -0.7240   13.7610   -3.8690 C   0  0  2  0  0  0  0  0  0  0  0  0
   -1.0330   14.9380   -2.9500 C   0  0  0  0  0  0  0  0  0  0  0  0
   -0.2180   14.4720   -5.0860 C   0  0  2  0  0  0  0  0  0  0  0  0
    0.7480   13.5880   -5.6120 O   0  0  0  0  0  0  0  0  0  0  0  0
    0.0480   15.8010   -3.1890 O   0  0  0  0  0  0  0  0  0  0  0  0
    0.4140   15.7200   -4.5170 C   0  0  2  0  0  0  0  0  0  0  0  0
    0.1300   17.0340   -5.2750 C   0  0  0  0  0  0  0  0  0  0  0  0
   -1.4560   17.7450   -5.5420 P   0  0  0  0  0  0  0  0  0  0  0  0
   -2.0380   18.8650   -4.4930 O   0  0  0  0  0  0  0  0  0  0  0  0
   -2.5300   17.2750   -6.7420 O   0  0  0  0  0  0  0  0  0  0  0  0
   -1.0510   18.9800   -6.3090 O   0  0  0  0  0  0  0  0  0  0  0  0
   -0.8350   19.3550   -7.7490 P   0  0  0  0  0  0  0  0  0  0  0  0
   -1.0490   20.9670   -7.4280 O   0  0  0  0  0  0  0  0  0  0  0  0
    0.6320   18.6490   -7.6920 O   0  0  0  0  0  0  0  0  0  0  0  0
   -0.4140   19.7970   -9.0990 O   0  0  0  0  0  0  0  0  0  0  0  0
  2  1  1  6
  2  3  1  0
  2  4  1  0
  4  5  1  1
  3  6  1  0
  4  7  1  0
  6  7  1  0
  7  8  1  6
  8  9  1  0
  9 10  1  0
  9 11  1  0
  9 12  1  0
 12 13  1  0
 13 14  1  0
 13 15  1  0
 13 16  1  0
M  CHG  2  10  -1  15  -1
M  END
>  <%Rank>  (800) 
60.992366

>  <N_hits>  (800) 
2

>  <submitter_name>  (800) 
nan

>  <original SMILES>  (800) 
nan

>  <∆G_unbound>  (800) 
1.623423

>  <∆G_bound>  (800) 
-7.103569

>  <regarded>  (800) 
mArh-5dus_0_A_γ,5CMS_0_G_α

>  <ref_pdb>  (800) 
nan

>  <smiles>  (800) 
[O-][PH](O)(O)O[PH]([O-])(O)CC1OCC(O)C1O

>  <submitter_email>  (800) 
nan

>  <disregarded>  (800) 


>  <LE>  (800) 
-0.545437

>  <submitter_institution>  (800) 
nan

>  <ref_mols>  (800) 
mArh-5dus_0_A,5CMS_0_G

>  <N_constrained_atoms>  (800) 
16.0

>  <ref_url>  (800) 
nan

>  <method>  (800) 
nan

>  <comRMSD>  (800) 
1.001043

>  <N_unconstrained_atoms>  (800) 
0.0

>  <∆∆G>  (800) 
-8.726992

>  <runtime>  (800) 
40.033017

>  <generation_date>  (800) 
nan

$$$$
mArh-x0685_0_A_α-MAC-242_0_A_α
     RDKit          3D

 21 23  0  0  0  0  0  0  0  0999 V2000
   -7.4450   14.9380    2.1680 N   0  0  0  0  0  0  0  0  0  0  0  0
   -8.4750   13.9530    2.3240 C   0  0  0  0  0  0  0  0  0  0  0  0
   -7.9090   12.7290    3.0070 C   0  0  0  0  0  0  0  0  0  0  0  0
   -6.6220   14.8930    1.0490 C   0  0  0  0  0  0  0  0  0  0  0  0
   -5.3050   14.8840    1.2760 C   0  0  0  0  0  0  0  0  0  0  0  0
   -7.1560   14.8860   -0.2260 N   0  0  0  0  0  0  0  0  0  0  0  0
   -4.5050   14.8540    0.2040 C   0  0  0  0  0  0  0  0  0  0  0  0
   -6.3010   14.8590   -1.3220 C   0  0  0  0  0  0  0  0  0  0  0  0
   -4.9480   14.8320   -1.1130 C   0  0  0  0  0  0  0  0  0  0  0  0
   -3.6730   14.7680   -1.6830 C   0  0  0  0  0  0  0  0  0  0  0  0
   -2.7140   14.7780   -2.7030 C   0  0  0  0  0  0  0  0  0  0  0  0
   -3.3410   14.6110   -0.4400 C   0  0  0  0  0  0  0  0  0  0  0  0
   -2.1940   14.4440    0.0610 C   0  0  0  0  0  0  0  0  0  0  0  0
   -1.3550   14.5730   -2.1880 C   0  0  0  0  0  0  0  0  0  0  0  0
   -2.9970   14.9590   -4.0610 N   0  0  0  0  0  0  0  0  0  0  0  0
   -2.2010   14.3250    1.4070 C   0  0  0  0  0  0  0  0  0  0  0  0
   -1.1160   14.4020   -0.7560 C   0  0  0  0  0  0  0  0  0  0  0  0
   -3.4100   14.3960    2.0760 N   0  0  0  0  0  0  0  0  0  0  0  0
    0.0660   14.1950   -0.0390 C   0  0  0  0  0  0  0  0  0  0  0  0
   -1.1560   14.1540    2.0760 N   0  0  0  0  0  0  0  0  0  0  0  0
   -0.0710   14.0830    1.3710 C   0  0  0  0  0  0  0  0  0  0  0  0
  1  2  1  0
  2  3  1  0
  1  4  1  0
  4  5  2  0
  4  6  1  0
  5  7  1  0
  6  8  2  0
  7  9  2  0
  8  9  1  0
  9 10  1  0
 10 11  2  0
 10 12  1  0
 12 13  2  0
 11 14  1  0
 11 15  1  0
 13 16  1  0
 13 17  1  0
 14 17  2  0
 16 18  1  0
 17 19  1  0
 16 20  2  0
 19 21  2  0
 20 21  1  0
M  END
>  <%Rank>  (801) 
61.068702

>  <N_hits>  (801) 
2

>  <submitter_name>  (801) 
nan

>  <original SMILES>  (801) 
nan

>  <∆G_unbound>  (801) 
-0.046444

>  <∆G_bound>  (801) 
-1.969845

>  <regarded>  (801) 
mArh-x0685_0_A_α,MAC-242_0_A_α

>  <ref_pdb>  (801) 
nan

>  <smiles>  (801) 
CCNc1ccc(-c2cc3c(N)nccc3cc2N)cn1

>  <submitter_email>  (801) 
nan

>  <disregarded>  (801) 


>  <LE>  (801) 
-0.091591

>  <submitter_institution>  (801) 
nan

>  <ref_mols>  (801) 
mArh-x0685_0_A,MAC-242_0_A

>  <N_constrained_atoms>  (801) 
21.0

>  <ref_url>  (801) 
nan

>  <method>  (801) 
nan

>  <comRMSD>  (801) 
0.877237

>  <N_unconstrained_atoms>  (801) 
0.0

>  <∆∆G>  (801) 
-1.923401

>  <runtime>  (801) 
36.579601

>  <generation_date>  (801) 
nan

$$$$
4IQY_0_B_α-mArh-x0724_0_A_α
     RDKit          3D

 29 31  0  0  0  0  0  0  0  0999 V2000
   -2.2220   21.4800   -8.4650 C   0  0  0  0  0  0  0  0  0  0  0  0
   -2.8800   22.6420   -7.7420 C   0  0  2  0  0  0  0  0  0  0  0  0
   -3.4500   22.1250   -6.5270 O   0  0  0  0  0  0  0  0  0  0  0  0
   -4.0490   23.3760   -8.4330 C   0  0  1  0  0  0  0  0  0  0  0  0
   -4.3180   23.0800   -9.7910 O   0  0  0  0  0  0  0  0  0  0  0  0
   -4.7120   21.7380   -6.9530 C   0  0  1  0  0  0  0  0  0  0  0  0
   -5.2430   23.0090   -7.5730 C   0  0  1  0  0  0  0  0  0  0  0  0
   -4.3540   20.6960   -7.8340 O   0  0  0  0  0  0  0  0  0  0  0  0
   -5.5490   24.0040   -6.5790 O   0  0  0  0  0  0  0  0  0  0  0  0
   -4.0250   19.7240   -6.8540 C   0  0  0  0  0  0  0  0  0  0  0  0
   -2.6980   18.8640   -6.7080 C   0  0  0  0  0  0  0  0  0  0  0  0
   -2.9710   17.3220   -6.3730 C   0  0  0  0  0  0  0  0  0  0  0  0
   -2.5470   16.6480   -5.0400 C   0  0  0  0  0  0  0  0  0  0  0  0
   -3.4060   15.3580   -4.7510 C   0  0  0  0  0  0  0  0  0  0  0  0
   -4.0720   15.0740   -3.3510 C   0  0  0  0  0  0  0  0  0  0  0  0
   -3.1080   14.9040   -2.2240 C   0  0  0  0  0  0  0  0  0  0  0  0
   -2.2520   14.7380   -1.0930 C   0  0  0  0  0  0  0  0  0  0  0  0
   -4.4220   14.8640   -1.5120 C   0  0  0  0  0  0  0  0  0  0  0  0
   -2.4750   14.5920    0.2610 C   0  0  0  0  0  0  0  0  0  0  0  0
   -4.7290   14.7110   -0.1170 C   0  0  0  0  0  0  0  0  0  0  0  0
   -6.0370   14.6810    0.5060 N   0  0  0  0  0  0  0  0  0  0  0  0
   -3.7110   14.5790    0.7600 C   0  0  0  0  0  0  0  0  0  0  0  0
   -7.2130   14.4190   -0.1290 N   0  0  0  0  0  0  0  0  0  0  0  0
   -6.2720   14.9160    1.8500 C   0  0  0  0  0  0  0  0  0  0  0  0
   -7.6230   14.8140    2.1060 C   0  0  0  0  0  0  0  0  0  0  0  0
   -8.1540   14.5000    0.8340 C   0  0  0  0  0  0  0  0  0  0  0  0
   -8.3300   15.0070    3.4110 C   0  0  0  0  0  0  0  0  0  0  0  0
   -8.4940   13.7270    4.0980 N   0  0  0  0  0  0  0  0  0  0  0  0
   -8.4800   13.9160    5.5450 C   0  0  0  0  0  0  0  0  0  0  0  0
  2  1  1  6
  2  3  1  0
  2  4  1  0
  4  5  1  6
  3  6  1  0
  4  7  1  0
  6  7  1  0
  6  8  1  6
  7  9  1  1
  8 10  1  0
 10 11  1  0
 11 12  1  0
 12 13  1  0
 13 14  1  0
 14 15  1  0
 15 16  1  0
 16 17  2  0
 16 18  1  0
 17 19  1  0
 18 20  2  0
 20 21  1  0
 19 22  2  0
 20 22  1  0
 21 23  1  0
 21 24  1  0
 24 25  2  0
 23 26  2  0
 25 26  1  0
 25 27  1  0
 27 28  1  0
 28 29  1  0
M  END
>  <%Rank>  (802) 
61.145038

>  <N_hits>  (802) 
2

>  <submitter_name>  (802) 
nan

>  <original SMILES>  (802) 
nan

>  <∆G_unbound>  (802) 
0.399279

>  <∆G_bound>  (802) 
-7.393209

>  <regarded>  (802) 
4IQY_0_B_α,mArh-x0724_0_A_α

>  <ref_pdb>  (802) 
nan

>  <smiles>  (802) 
CNCc1cnn(-c2cccc(CCCCCCOC3OC(C)C(O)C3O)c2)c1

>  <submitter_email>  (802) 
nan

>  <disregarded>  (802) 


>  <LE>  (802) 
-0.268707

>  <submitter_institution>  (802) 
nan

>  <ref_mols>  (802) 
4IQY_0_B,mArh-x0724_0_A

>  <N_constrained_atoms>  (802) 
23.0

>  <ref_url>  (802) 
nan

>  <method>  (802) 
nan

>  <comRMSD>  (802) 
0.870215

>  <N_unconstrained_atoms>  (802) 
6.0

>  <∆∆G>  (802) 
-7.792489

>  <runtime>  (802) 
91.532158

>  <generation_date>  (802) 
nan

$$$$
5CMS_0_O_β-5CB5_0_H_α
     RDKit          3D

 17 17  0  0  0  0  0  0  0  0999 V2000
   -1.5840   21.5270   -8.4840 O   0  0  0  0  0  0  0  0  0  0  0  0
   -0.9350   20.0870   -7.8390 P   0  0  0  0  0  0  0  0  0  0  0  0
   -1.9170   18.9190   -7.2650 O   0  0  0  0  0  0  0  0  0  0  0  0
   -2.9940   21.6320   -8.5880 C   0  0  1  0  0  0  0  0  0  0  0  0
   -0.9610   20.7280   -6.4970 O   0  0  0  0  0  0  0  0  0  0  0  0
   -0.8190   19.4130   -9.1750 O   0  0  0  0  0  0  0  0  0  0  0  0
   -3.6730   21.0950   -7.5240 O   0  0  0  0  0  0  0  0  0  0  0  0
   -3.4280   23.1350   -8.5600 C   0  0  1  0  0  0  0  0  0  0  0  0
   -1.6250   18.0020   -6.0750 P   0  0  0  0  0  0  0  0  0  0  0  0
   -4.2510   23.3100   -9.6680 O   0  0  0  0  0  0  0  0  0  0  0  0
   -4.7790   21.8460   -7.2300 C   0  0  2  0  0  0  0  0  0  0  0  0
   -4.2950   23.2430   -7.2990 C   0  0  2  0  0  0  0  0  0  0  0  0
   -1.2420   16.9770   -4.9960 O   0  0  0  0  0  0  0  0  0  0  0  0
   -2.7110   16.9770   -6.7310 O   0  0  0  0  0  0  0  0  0  0  0  0
   -2.1870   19.1040   -5.0030 O   0  0  0  0  0  0  0  0  0  0  0  0
   -5.4020   21.5820   -6.0150 O   0  0  0  0  0  0  0  0  0  0  0  0
   -5.3350   24.1240   -7.6220 O   0  0  0  0  0  0  0  0  0  0  0  0
  1  2  1  0
  2  3  1  0
  4  1  1  1
  2  5  1  0
  2  6  1  0
  4  7  1  0
  4  8  1  0
  3  9  1  0
  8 10  1  6
  7 11  1  0
  8 12  1  0
 11 12  1  0
  9 13  1  0
  9 14  1  0
  9 15  1  0
 11 16  1  1
 12 17  1  6
M  CHG  2   5  -1  14  -1
M  END
>  <%Rank>  (803) 
61.221374

>  <N_hits>  (803) 
2

>  <submitter_name>  (803) 
nan

>  <original SMILES>  (803) 
nan

>  <∆G_unbound>  (803) 
0.972863

>  <∆G_bound>  (803) 
-5.449109

>  <regarded>  (803) 
5CMS_0_O_β,5CB5_0_H_α

>  <ref_pdb>  (803) 
nan

>  <smiles>  (803) 
[O-][PH](O)(O)O[PH]([O-])(O)OC1OC(O)C(O)C1O

>  <submitter_email>  (803) 
nan

>  <disregarded>  (803) 


>  <LE>  (803) 
-0.377763

>  <submitter_institution>  (803) 
nan

>  <ref_mols>  (803) 
5CMS_0_O,5CB5_0_H

>  <N_constrained_atoms>  (803) 
17.0

>  <ref_url>  (803) 
nan

>  <method>  (803) 
nan

>  <comRMSD>  (803) 
0.945162

>  <N_unconstrained_atoms>  (803) 
0.0

>  <∆∆G>  (803) 
-6.421972

>  <runtime>  (803) 
36.275213

>  <generation_date>  (803) 
nan

$$$$
6WOJ_0_B_β-5CMS_0_B_γ
     RDKit          3D

 16 16  0  0  0  0  0  0  0  0999 V2000
   -1.5270   20.3620   -8.2860 O   0  0  0  0  0  0  0  0  0  0  0  0
   -0.1180   19.9310   -7.5360 P   0  0  0  0  0  0  0  0  0  0  0  0
   -0.0090   18.5690   -6.6240 O   0  0  0  0  0  0  0  0  0  0  0  0
    0.2690   19.0230   -8.6700 O   0  0  0  0  0  0  0  0  0  0  0  0
    1.1430   20.8850   -7.6500 O   0  0  0  0  0  0  0  0  0  0  0  0
   -1.3100   18.0630   -5.8720 P   0  0  0  0  0  0  0  0  0  0  0  0
   -0.4200   16.8650   -5.3640 O   0  0  0  0  0  0  0  0  0  0  0  0
   -1.5430   18.5570   -4.3000 O   0  0  0  0  0  0  0  0  0  0  0  0
   -2.4860   17.2210   -6.6160 O   0  0  0  0  0  0  0  0  0  0  0  0
   -0.7590   15.7930   -4.5380 C   0  0  2  0  0  0  0  0  0  0  0  0
    0.0320   15.6950   -3.3920 O   0  0  0  0  0  0  0  0  0  0  0  0
   -0.7030   14.4400   -5.1190 C   0  0  1  0  0  0  0  0  0  0  0  0
    0.5930   14.0310   -5.5280 O   0  0  0  0  0  0  0  0  0  0  0  0
   -0.3610   14.5020   -2.7420 C   0  0  0  0  0  0  0  0  0  0  0  0
   -1.0020   13.6350   -3.8560 C   0  0  2  0  0  0  0  0  0  0  0  0
   -0.4030   12.4010   -3.9750 O   0  0  0  0  0  0  0  0  0  0  0  0
  1  2  1  0
  2  3  1  0
  2  4  1  0
  2  5  1  0
  3  6  1  0
  6  7  1  0
  6  8  1  0
  6  9  1  0
 10  7  1  6
 10 11  1  0
 10 12  1  0
 12 13  1  1
 11 14  1  0
 12 15  1  0
 14 15  1  0
 15 16  1  6
M  CHG  2   4  -1   8  -1
M  END
>  <%Rank>  (804) 
61.29771

>  <N_hits>  (804) 
2

>  <submitter_name>  (804) 
nan

>  <original SMILES>  (804) 
nan

>  <∆G_unbound>  (804) 
1.160673

>  <∆G_bound>  (804) 
-7.066119

>  <regarded>  (804) 
6WOJ_0_B_β,5CMS_0_B_γ

>  <ref_pdb>  (804) 
nan

>  <smiles>  (804) 
[O-][PH](O)(O)O[PH]([O-])(O)OC1OCC(O)C1O

>  <submitter_email>  (804) 
nan

>  <disregarded>  (804) 


>  <LE>  (804) 
-0.514174

>  <submitter_institution>  (804) 
nan

>  <ref_mols>  (804) 
6WOJ_0_B,5CMS_0_B

>  <N_constrained_atoms>  (804) 
16.0

>  <ref_url>  (804) 
nan

>  <method>  (804) 
nan

>  <comRMSD>  (804) 
0.991657

>  <N_unconstrained_atoms>  (804) 
0.0

>  <∆∆G>  (804) 
-8.226792

>  <runtime>  (804) 
28.987847

>  <generation_date>  (804) 
nan

$$$$
6WOJ_0_D_β-5CB5_0_F_α
     RDKit          3D

 20 20  0  0  0  0  0  0  0  0999 V2000
   -1.6260   20.7540   -8.6760 O   0  0  0  0  0  0  0  0  0  0  0  0
   -0.2570   20.1420   -8.0500 P   0  0  0  0  0  0  0  0  0  0  0  0
   -0.6580   19.7390   -6.6230 O   0  0  0  0  0  0  0  0  0  0  0  0
   -2.6370   21.3630   -8.0170 C   0  0  1  0  0  0  0  0  0  0  0  0
    1.0180   21.0400   -7.5170 O   0  0  0  0  0  0  0  0  0  0  0  0
    0.0320   18.5300   -8.4600 O   0  0  0  0  0  0  0  0  0  0  0  0
   -3.1680   22.6210   -8.6620 C   0  0  1  0  0  0  0  0  0  0  0  0
   -3.8240   20.6340   -7.8010 O   0  0  0  0  0  0  0  0  0  0  0  0
   -1.1220   18.2610   -6.0750 P   0  0  0  0  0  0  0  0  0  0  0  0
   -3.9610   22.4540   -9.7930 O   0  0  0  0  0  0  0  0  0  0  0  0
   -4.0380   22.8840   -7.5140 C   0  0  2  0  0  0  0  0  0  0  0  0
   -4.8070   21.5940   -7.5040 C   0  0  2  0  0  0  0  0  0  0  0  0
   -0.0380   17.3150   -5.2000 O   0  0  0  0  0  0  0  0  0  0  0  0
   -2.5280   17.6050   -6.5050 O   0  0  0  0  0  0  0  0  0  0  0  0
   -1.7440   18.8110   -4.8290 O   0  0  0  0  0  0  0  0  0  0  0  0
   -4.8520   23.8880   -7.8410 O   0  0  0  0  0  0  0  0  0  0  0  0
   -5.2770   21.3430   -6.1880 O   0  0  0  0  0  0  0  0  0  0  0  0
   -5.3070   24.2830   -6.6740 C   0  0  1  0  0  0  0  0  0  0  0  0
   -4.5740   25.5350   -6.2060 C   0  0  0  0  0  0  0  0  0  0  0  0
   -6.6520   24.4640   -6.9180 O   0  0  0  0  0  0  0  0  0  0  0  0
  1  2  1  0
  2  3  1  0
  4  1  1  6
  2  5  1  0
  2  6  1  0
  4  7  1  0
  4  8  1  0
  3  9  1  0
  7 10  1  6
  7 11  1  0
  8 12  1  0
 11 12  1  0
  9 13  1  0
  9 14  1  0
  9 15  1  0
 11 16  1  6
 12 17  1  1
 16 18  1  0
 18 19  1  6
 18 20  1  0
M  CHG  2   5  -1  14  -1
M  END
>  <%Rank>  (805) 
61.374046

>  <N_hits>  (805) 
2

>  <submitter_name>  (805) 
nan

>  <original SMILES>  (805) 
nan

>  <∆G_unbound>  (805) 
2.437075

>  <∆G_bound>  (805) 
-6.374281

>  <regarded>  (805) 
6WOJ_0_D_β,5CB5_0_F_α

>  <ref_pdb>  (805) 
nan

>  <smiles>  (805) 
C[C@@H](O)OC1C(O)OC(O[PH]([O-])(O)O[PH]([O-])(O)O)C1O

>  <submitter_email>  (805) 
nan

>  <disregarded>  (805) 


>  <LE>  (805) 
-0.440568

>  <submitter_institution>  (805) 
nan

>  <ref_mols>  (805) 
6WOJ_0_D,5CB5_0_F

>  <N_constrained_atoms>  (805) 
20.0

>  <ref_url>  (805) 
nan

>  <method>  (805) 
nan

>  <comRMSD>  (805) 
1.038839

>  <N_unconstrained_atoms>  (805) 
0.0

>  <∆∆G>  (805) 
-8.811355

>  <runtime>  (805) 
38.684042

>  <generation_date>  (805) 
nan

$$$$
MAC-120_0_A_α-mArh-5cb5_I_0_I_α
     RDKit          3D

 22 23  0  0  0  0  0  0  0  0999 V2000
   -6.6170   15.1520   -2.1010 C   0  0  0  0  0  0  0  0  0  0  0  0
   -5.2100   14.9550   -1.6040 C   0  0  0  0  0  0  0  0  0  0  0  0
   -4.0480   14.9000   -2.4460 C   0  0  0  0  0  0  0  0  0  0  0  0
   -5.0330   14.8180   -0.2060 C   0  0  0  0  0  0  0  0  0  0  0  0
   -3.9270   15.0270   -3.9830 C   0  0  0  0  0  0  0  0  0  0  0  0
   -3.7610   14.6330    0.3240 C   0  0  0  0  0  0  0  0  0  0  0  0
   -2.8430   14.7070   -1.7820 C   0  0  0  0  0  0  0  0  0  0  0  0
   -3.5450   14.4960    1.7000 N   0  0  0  0  0  0  0  0  0  0  0  0
   -2.8100   16.0530   -4.3900 C   0  0  0  0  0  0  0  0  0  0  0  0
   -2.6770   14.5760   -0.4470 N   0  0  0  0  0  0  0  0  0  0  0  0
   -2.9070   16.8330   -5.7410 C   0  0  0  0  0  0  0  0  0  0  0  0
   -2.2530   18.2920   -5.6960 C   0  0  0  0  0  0  0  0  0  0  0  0
   -2.8710   19.4920   -6.5330 C   0  0  0  0  0  0  0  0  0  0  0  0
   -3.9980   20.3530   -6.0640 O   0  0  0  0  0  0  0  0  0  0  0  0
   -4.7120   21.1520   -7.0750 C   0  0  2  0  0  0  0  0  0  0  0  0
   -4.0120   20.9550   -8.2760 O   0  0  0  0  0  0  0  0  0  0  0  0
   -4.5640   22.7090   -6.8350 C   0  0  2  0  0  0  0  0  0  0  0  0
   -5.7860   23.4480   -7.0180 O   0  0  0  0  0  0  0  0  0  0  0  0
   -2.9330   21.7650   -7.9170 C   0  0  2  0  0  0  0  0  0  0  0  0
   -3.5820   23.1230   -7.9450 C   0  0  1  0  0  0  0  0  0  0  0  0
   -1.6740   21.4430   -8.6410 C   0  0  0  0  0  0  0  0  0  0  0  0
   -4.2850   23.5210   -9.1440 O   0  0  0  0  0  0  0  0  0  0  0  0
  1  2  1  0
  2  3  2  0
  2  4  1  0
  3  5  1  0
  4  6  2  0
  3  7  1  0
  6  8  1  0
  5  9  1  0
  6 10  1  0
  7 10  2  0
  9 11  1  0
 11 12  1  0
 12 13  1  0
 13 14  1  0
 15 14  1  1
 15 16  1  0
 15 17  1  0
 17 18  1  6
 16 19  1  0
 17 20  1  0
 19 20  1  0
 19 21  1  6
 20 22  1  6
M  END
>  <%Rank>  (806) 
61.450382

>  <N_hits>  (806) 
2

>  <submitter_name>  (806) 
nan

>  <original SMILES>  (806) 
nan

>  <∆G_unbound>  (806) 
-0.077667

>  <∆G_bound>  (806) 
-8.533788

>  <regarded>  (806) 
MAC-120_0_A_α,mArh-5cb5_I_0_I_α

>  <ref_pdb>  (806) 
nan

>  <smiles>  (806) 
Cc1cc(N)ncc1CCCCCOC1OC(C)C(O)C1O

>  <submitter_email>  (806) 
nan

>  <disregarded>  (806) 


>  <LE>  (806) 
-0.384369

>  <submitter_institution>  (806) 
nan

>  <ref_mols>  (806) 
MAC-120_0_A,mArh-5cb5_I_0_I

>  <N_constrained_atoms>  (806) 
17.0

>  <ref_url>  (806) 
nan

>  <method>  (806) 
nan

>  <comRMSD>  (806) 
0.803206

>  <N_unconstrained_atoms>  (806) 
5.0

>  <∆∆G>  (806) 
-8.45612

>  <runtime>  (806) 
56.380336

>  <generation_date>  (806) 
nan

$$$$
mArh-x0910_0_A_α-mArh-x0724_0_A_α
     RDKit          3D

 19 21  0  0  0  0  0  0  0  0999 V2000
   -2.6220   13.0110   -1.7890 N   0  0  0  0  0  0  0  0  0  0  0  0
   -2.4600   13.8890   -0.6470 C   0  0  2  0  0  0  0  0  0  0  0  0
   -1.2170   13.5160    0.0370 N   0  0  0  0  0  0  0  0  0  0  0  0
   -3.6950   13.8740    0.2610 C   0  0  0  0  0  0  0  0  0  0  0  0
   -2.3980   15.3150   -1.1950 C   0  0  2  0  0  0  0  0  0  0  0  0
   -2.2100   16.1460    0.0090 N   0  0  0  0  0  0  0  0  0  0  0  0
   -0.6260   14.4770    0.6330 C   0  0  0  0  0  0  0  0  0  0  0  0
   -3.6750   15.5600   -1.9470 C   0  0  0  0  0  0  0  0  0  0  0  0
   -4.8690   14.4990   -0.1090 C   0  0  0  0  0  0  0  0  0  0  0  0
   -1.0150   15.7800    0.7030 N   0  0  0  0  0  0  0  0  0  0  0  0
   -6.0740   14.5510    0.6740 N   0  0  0  0  0  0  0  0  0  0  0  0
   -4.8350   15.1630   -1.4160 C   0  0  0  0  0  0  0  0  0  0  0  0
   -7.3480   14.3600    0.1790 N   0  0  0  0  0  0  0  0  0  0  0  0
   -6.1820   14.8110    2.0400 C   0  0  0  0  0  0  0  0  0  0  0  0
   -7.5110   14.7960    2.4130 C   0  0  0  0  0  0  0  0  0  0  0  0
   -8.1780   14.5080    1.2120 C   0  0  0  0  0  0  0  0  0  0  0  0
   -8.0770   15.0380    3.7700 C   0  0  0  0  0  0  0  0  0  0  0  0
   -8.7660   13.8460    4.2520 N   0  0  0  0  0  0  0  0  0  0  0  0
   -8.7130   13.7840    5.7070 C   0  0  0  0  0  0  0  0  0  0  0  0
  2  1  1  6
  2  3  1  0
  2  4  1  0
  2  5  1  0
  5  6  1  0
  3  7  2  0
  5  8  1  1
  4  9  2  0
  6 10  1  0
  7 10  1  0
  9 11  1  0
  8 12  2  0
  9 12  1  0
 11 13  1  0
 11 14  1  0
 14 15  2  0
 13 16  2  0
 15 16  1  0
 15 17  1  0
 17 18  1  0
 18 19  1  0
M  END
>  <%Rank>  (807) 
61.526718

>  <N_hits>  (807) 
2

>  <submitter_name>  (807) 
nan

>  <original SMILES>  (807) 
nan

>  <∆G_unbound>  (807) 
0.30895

>  <∆G_bound>  (807) 
-3.591962

>  <regarded>  (807) 
mArh-x0910_0_A_α,mArh-x0724_0_A_α

>  <ref_pdb>  (807) 
nan

>  <smiles>  (807) 
CNCc1cnn(C2=CC3(N)N=CNNC3C=C2)c1

>  <submitter_email>  (807) 
nan

>  <disregarded>  (807) 


>  <LE>  (807) 
-0.205311

>  <submitter_institution>  (807) 
nan

>  <ref_mols>  (807) 
mArh-x0910_0_A,mArh-x0724_0_A

>  <N_constrained_atoms>  (807) 
19.0

>  <ref_url>  (807) 
nan

>  <method>  (807) 
nan

>  <comRMSD>  (807) 
0.903017

>  <N_unconstrained_atoms>  (807) 
0.0

>  <∆∆G>  (807) 
-3.900911

>  <runtime>  (807) 
35.066541

>  <generation_date>  (807) 
nan

$$$$
mArh-x0685_1_A_α-mArh-5cb5_I_0_I_γ
     RDKit          3D

 19 20  0  0  0  0  0  0  0  0999 V2000
   -1.8450   11.5650   -5.2380 N   0  0  0  0  0  0  0  0  0  0  0  0
   -1.1940   12.4100   -4.1840 C   0  0  1  0  0  0  0  0  0  0  0  0
    0.2960   12.2730   -4.2150 C   0  0  0  0  0  0  0  0  0  0  0  0
   -0.9820   10.9540   -6.2920 C   0  0  0  0  0  0  0  0  0  0  0  0
   -0.7860    9.4210   -6.1820 C   0  0  0  0  0  0  0  0  0  0  0  0
   -1.6770   11.2560   -7.6340 C   0  0  0  0  0  0  0  0  0  0  0  0
   -1.5540   13.9240   -4.2240 C   0  0  1  0  0  0  0  0  0  0  0  0
    0.8720   11.9020   -2.5810 S   0  0  0  0  0  0  0  0  0  0  0  0
   -0.1000    8.7970   -7.4170 C   0  0  0  0  0  0  0  0  0  0  0  0
   -0.9880   10.6650   -8.8640 C   0  0  0  0  0  0  0  0  0  0  0  0
   -1.3480   14.6880   -2.9160 C   0  0  0  0  0  0  0  0  0  0  0  0
   -0.8130   14.8140   -5.2120 C   0  0  0  0  0  0  0  0  0  0  0  0
    2.4030   12.3470   -2.6390 O   0  0  0  0  0  0  0  0  0  0  0  0
    0.6300   10.3330   -2.3650 O   0  0  0  0  0  0  0  0  0  0  0  0
    0.1010   12.7070   -1.4320 O   0  0  0  0  0  0  0  0  0  0  0  0
   -0.7780    9.1650   -8.7430 C   0  0  0  0  0  0  0  0  0  0  0  0
   -0.1930   15.5490   -3.0510 O   0  0  0  0  0  0  0  0  0  0  0  0
    0.2160   15.6080   -4.4190 C   0  0  2  0  0  0  0  0  0  0  0  0
    0.2860   17.0710   -4.8490 C   0  0  0  0  0  0  0  0  0  0  0  0
  1  2  1  0
  2  3  1  6
  1  4  1  0
  4  5  1  0
  4  6  1  0
  2  7  1  0
  3  8  1  0
  5  9  1  0
  6 10  1  0
  7 11  1  1
  7 12  1  0
  8 13  1  0
  8 14  1  0
  8 15  1  0
  9 16  1  0
 10 16  1  0
 11 17  1  0
 12 18  1  0
 17 18  1  0
 18 19  1  6
M  END
>  <%Rank>  (808) 
61.603053

>  <N_hits>  (808) 
2

>  <submitter_name>  (808) 
nan

>  <original SMILES>  (808) 
nan

>  <∆G_unbound>  (808) 
0.499676

>  <∆G_bound>  (808) 
-5.671928

>  <regarded>  (808) 
mArh-x0685_1_A_α,mArh-5cb5_I_0_I_γ

>  <ref_pdb>  (808) 
nan

>  <smiles>  (808) 
CC1CC(C(CS(O)(O)O)NC2CCCCC2)CO1

>  <submitter_email>  (808) 
nan

>  <disregarded>  (808) 


>  <LE>  (808) 
-0.324821

>  <submitter_institution>  (808) 
nan

>  <ref_mols>  (808) 
mArh-x0685_1_A,mArh-5cb5_I_0_I

>  <N_constrained_atoms>  (808) 
19.0

>  <ref_url>  (808) 
nan

>  <method>  (808) 
nan

>  <comRMSD>  (808) 
0.964527

>  <N_unconstrained_atoms>  (808) 
0.0

>  <∆∆G>  (808) 
-6.171603

>  <runtime>  (808) 
28.695616

>  <generation_date>  (808) 
nan

$$$$
mArh-3gqe_A_0_A_α-mArh-5cb5_M_1_M_β
     RDKit          3D

 15 14  0  0  0  0  0  0  0  0999 V2000
   -2.3480   18.2580   -6.3280 C   0  0  0  0  0  0  0  0  0  0  0  0
   -2.2010   19.7080   -6.2340 N   0  0  0  0  0  0  0  0  0  0  0  0
   -3.3480   20.6720   -6.2530 C   0  0  0  0  0  0  0  0  0  0  0  0
   -2.2590   17.5960   -4.9380 C   0  0  0  0  0  0  0  0  0  0  0  0
   -1.2500   17.7260   -6.9780 O   0  0  0  0  0  0  0  0  0  0  0  0
   -3.3850   17.8460   -7.0990 O   0  0  0  0  0  0  0  0  0  0  0  0
   -0.9370   20.1800   -6.7850 C   0  0  0  0  0  0  0  0  0  0  0  0
   -2.8930   16.6320   -4.5310 O   0  0  0  0  0  0  0  0  0  0  0  0
   -1.3880   18.2580   -4.1760 O   0  0  0  0  0  0  0  0  0  0  0  0
   -3.2450   21.7420   -7.3650 C   0  0  0  0  0  0  0  0  0  0  0  0
   -0.4890   19.9860   -8.2420 C   0  0  0  0  0  0  0  0  0  0  0  0
   -4.5520   22.2290   -7.6980 O   0  0  0  0  0  0  0  0  0  0  0  0
   -0.1860   18.6630   -8.6020 O   0  0  0  0  0  0  0  0  0  0  0  0
   -1.4020   20.4630   -9.1580 O   0  0  0  0  0  0  0  0  0  0  0  0
    0.6630   20.7690   -8.3260 O   0  0  0  0  0  0  0  0  0  0  0  0
  1  2  1  0
  2  3  1  0
  1  4  1  0
  1  5  1  0
  1  6  1  0
  2  7  1  0
  4  8  2  0
  4  9  1  0
  3 10  1  0
  7 11  1  0
 10 12  1  0
 11 13  1  0
 11 14  1  0
 11 15  1  0
M  END
>  <%Rank>  (809) 
61.679389

>  <N_hits>  (809) 
2

>  <submitter_name>  (809) 
nan

>  <original SMILES>  (809) 
nan

>  <∆G_unbound>  (809) 
2.206297

>  <∆G_bound>  (809) 
0.585331

>  <regarded>  (809) 
mArh-3gqe_A_0_A_α,mArh-5cb5_M_1_M_β

>  <ref_pdb>  (809) 
nan

>  <smiles>  (809) 
O=C(O)C(O)(O)N(CCO)CC(O)(O)O

>  <submitter_email>  (809) 
nan

>  <disregarded>  (809) 


>  <LE>  (809) 
-0.108064

>  <submitter_institution>  (809) 
nan

>  <ref_mols>  (809) 
mArh-3gqe_A_0_A,mArh-5cb5_M_1_M

>  <N_constrained_atoms>  (809) 
15.0

>  <ref_url>  (809) 
nan

>  <method>  (809) 
nan

>  <comRMSD>  (809) 
0.768661

>  <N_unconstrained_atoms>  (809) 
0.0

>  <∆∆G>  (809) 
-1.620966

>  <runtime>  (809) 
23.06201

>  <generation_date>  (809) 
nan

$$$$
mArh-EU0906_0_A_α-5CMS_0_K_β
     RDKit          3D

 21 21  0  0  0  0  0  0  0  0999 V2000
    0.8150   10.0500  -10.9170 N   0  0  0  0  0  0  0  0  0  0  0  0
    0.6760   10.3330   -9.5000 C   0  0  2  0  0  0  0  0  0  0  0  0
    0.2190    9.1660   -8.6690 C   0  0  0  0  0  0  0  0  0  0  0  0
   -0.4220   11.3100   -9.2300 C   0  0  0  0  0  0  0  0  0  0  0  0
   -0.8320    9.7350   -7.7960 N   0  0  0  0  0  0  0  0  0  0  0  0
   -0.4750   11.1070   -7.7810 N   0  0  0  0  0  0  0  0  0  0  0  0
   -0.8760    9.1130   -6.5020 C   0  0  0  0  0  0  0  0  0  0  0  0
   -1.2730   12.0750   -6.9620 C   0  0  0  0  0  0  0  0  0  0  0  0
   -0.2430    7.7250   -6.5340 C   0  0  0  0  0  0  0  0  0  0  0  0
   -0.4520   13.0140   -6.0580 C   0  0  0  0  0  0  0  0  0  0  0  0
   -1.1120   14.2590   -5.3970 C   0  0  0  0  0  0  0  0  0  0  0  0
   -0.2100   15.5250   -5.2640 C   0  0  0  0  0  0  0  0  0  0  0  0
   -0.8240   16.6940   -4.8050 O   0  0  0  0  0  0  0  0  0  0  0  0
   -1.6520   17.8160   -5.7900 P   0  0  0  0  0  0  0  0  0  0  0  0
   -0.4550   18.4910   -6.5720 O   0  0  0  0  0  0  0  0  0  0  0  0
   -2.4780   17.4110   -7.1220 O   0  0  0  0  0  0  0  0  0  0  0  0
   -2.0990   19.2220   -5.0920 O   0  0  0  0  0  0  0  0  0  0  0  0
   -0.4530   19.4890   -7.8000 P   0  0  0  0  0  0  0  0  0  0  0  0
   -2.0200   19.9530   -7.5580 O   0  0  0  0  0  0  0  0  0  0  0  0
    0.7970   20.3980   -7.3110 O   0  0  0  0  0  0  0  0  0  0  0  0
   -0.0860   18.3410   -8.8700 O   0  0  0  0  0  0  0  0  0  0  0  0
  2  1  1  6
  2  3  1  0
  2  4  1  0
  3  5  1  0
  4  6  1  0
  5  6  1  0
  5  7  1  0
  6  8  1  0
  7  9  1  0
  8 10  1  0
 10 11  1  0
 11 12  1  0
 12 13  1  0
 13 14  1  0
 14 15  1  0
 14 16  1  0
 14 17  1  0
 15 18  1  0
 18 19  1  0
 18 20  1  0
 18 21  1  0
M  CHG  2  16  -1  20  -1
M  END
>  <%Rank>  (810) 
61.755725

>  <N_hits>  (810) 
2

>  <submitter_name>  (810) 
nan

>  <original SMILES>  (810) 
nan

>  <∆G_unbound>  (810) 
1.026543

>  <∆G_bound>  (810) 
-6.839218

>  <regarded>  (810) 
mArh-EU0906_0_A_α,5CMS_0_K_β

>  <ref_pdb>  (810) 
nan

>  <smiles>  (810) 
CCN1CC(N)CN1CCCCO[PH]([O-])(O)O[PH]([O-])(O)O

>  <submitter_email>  (810) 
nan

>  <disregarded>  (810) 


>  <LE>  (810) 
-0.37456

>  <submitter_institution>  (810) 
nan

>  <ref_mols>  (810) 
mArh-EU0906_0_A,5CMS_0_K

>  <N_constrained_atoms>  (810) 
17.0

>  <ref_url>  (810) 
nan

>  <method>  (810) 
nan

>  <comRMSD>  (810) 
0.830608

>  <N_unconstrained_atoms>  (810) 
4.0

>  <∆∆G>  (810) 
-7.865762

>  <runtime>  (810) 
34.159641

>  <generation_date>  (810) 
nan

$$$$
mArh-5cms_N_13_N_β-5L9K_0_A_β
     RDKit          3D

  9  8  0  0  0  0  0  0  0  0999 V2000
   -1.2810   20.5900   -8.8830 O   0  0  0  0  0  0  0  0  0  0  0  0
   -0.3510   19.8000   -7.8700 P   0  0  0  0  0  0  0  0  0  0  0  0
   -1.3220   19.4910   -6.6880 O   0  0  0  0  0  0  0  0  0  0  0  0
    0.9120   20.5020   -7.5690 O   0  0  0  0  0  0  0  0  0  0  0  0
   -0.1430   18.4550   -8.7110 O   0  0  0  0  0  0  0  0  0  0  0  0
   -1.6720   18.0760   -6.1050 P   0  0  0  0  0  0  0  0  0  0  0  0
   -0.3140   17.2600   -6.2000 O   0  0  0  0  0  0  0  0  0  0  0  0
   -2.8080   17.4270   -6.7850 O   0  0  0  0  0  0  0  0  0  0  0  0
   -1.8180   18.2900   -4.5470 O   0  0  0  0  0  0  0  0  0  0  0  0
  1  2  1  0
  2  3  1  0
  2  4  2  0
  2  5  1  0
  3  6  1  0
  6  7  1  0
  6  8  2  0
  6  9  1  0
M  END
>  <%Rank>  (811) 
61.832061

>  <N_hits>  (811) 
2

>  <submitter_name>  (811) 
nan

>  <original SMILES>  (811) 
nan

>  <∆G_unbound>  (811) 
0.687887

>  <∆G_bound>  (811) 
-6.932269

>  <regarded>  (811) 
mArh-5cms_N_13_N_β,5L9K_0_A_β

>  <ref_pdb>  (811) 
nan

>  <smiles>  (811) 
O=P(O)(O)OP(=O)(O)O

>  <submitter_email>  (811) 
nan

>  <disregarded>  (811) 


>  <LE>  (811) 
-0.846684

>  <submitter_institution>  (811) 
nan

>  <ref_mols>  (811) 
mArh-5cms_N_13_N,5L9K_0_A

>  <N_constrained_atoms>  (811) 
9.0

>  <ref_url>  (811) 
nan

>  <method>  (811) 
nan

>  <comRMSD>  (811) 
0.960739

>  <N_unconstrained_atoms>  (811) 
0.0

>  <∆∆G>  (811) 
-7.620156

>  <runtime>  (811) 
20.241219

>  <generation_date>  (811) 
nan

$$$$
5MQX_0_A_γ-6WOJ_0_A_α
     RDKit          3D

 23 24  0  0  0  0  0  0  0  0999 V2000
    0.0220   10.9150   -1.8090 O   0  0  0  0  0  0  0  0  0  0  0  0
   -1.1630   11.5980   -2.2930 C   0  0  1  0  0  0  0  0  0  0  0  0
   -1.2070   13.0160   -1.7350 C   0  0  0  0  0  0  0  0  0  0  0  0
   -1.0810   11.8050   -3.8150 C   0  0  2  0  0  0  0  0  0  0  0  0
    0.0490   11.1470   -4.3640 O   0  0  0  0  0  0  0  0  0  0  0  0
   -0.6580   13.8880   -2.7350 O   0  0  0  0  0  0  0  0  0  0  0  0
   -1.0130   13.3340   -4.0070 C   0  0  2  0  0  0  0  0  0  0  0  0
   -2.2390   14.0330   -4.6170 C   0  0  0  0  0  0  0  0  0  0  0  0
   -2.5120   15.4950   -4.2120 C   0  0  0  0  0  0  0  0  0  0  0  0
   -1.8410   16.5840   -5.0790 C   0  0  0  0  0  0  0  0  0  0  0  0
   -2.7890   17.0700   -6.1790 C   0  0  0  0  0  0  0  0  0  0  0  0
   -2.6240   18.5600   -6.6090 C   0  0  0  0  0  0  0  0  0  0  0  0
   -2.1380   19.5180   -5.5200 C   0  0  0  0  0  0  0  0  0  0  0  0
   -2.9430   20.8380   -5.3500 C   0  0  0  0  0  0  0  0  0  0  0  0
   -4.3680   20.8090   -5.6150 O   0  0  0  0  0  0  0  0  0  0  0  0
   -4.7590   21.7010   -6.6750 C   0  0  2  0  0  0  0  0  0  0  0  0
   -3.9670   21.2400   -7.7780 O   0  0  0  0  0  0  0  0  0  0  0  0
   -4.3220   23.2040   -6.4750 C   0  0  2  0  0  0  0  0  0  0  0  0
   -5.3580   24.1770   -6.4070 O   0  0  0  0  0  0  0  0  0  0  0  0
   -2.8170   21.9980   -7.4830 C   0  0  2  0  0  0  0  0  0  0  0  0
   -3.3460   23.4130   -7.6340 C   0  0  1  0  0  0  0  0  0  0  0  0
   -1.5590   21.5120   -8.1420 C   0  0  0  0  0  0  0  0  0  0  0  0
   -4.0650   23.7710   -8.8310 O   0  0  0  0  0  0  0  0  0  0  0  0
  2  1  1  1
  2  3  1  0
  2  4  1  0
  4  5  1  1
  3  6  1  0
  4  7  1  0
  6  7  1  0
  7  8  1  1
  8  9  1  0
  9 10  1  0
 10 11  1  0
 11 12  1  0
 12 13  1  0
 13 14  1  0
 14 15  1  0
 16 15  1  1
 16 17  1  0
 16 18  1  0
 18 19  1  6
 17 20  1  0
 18 21  1  0
 20 21  1  0
 20 22  1  6
 21 23  1  6
M  END
>  <%Rank>  (812) 
61.908397

>  <N_hits>  (812) 
2

>  <submitter_name>  (812) 
nan

>  <original SMILES>  (812) 
nan

>  <∆G_unbound>  (812) 
0.081327

>  <∆G_bound>  (812) 
-10.413211

>  <regarded>  (812) 
5MQX_0_A_γ,6WOJ_0_A_α

>  <ref_pdb>  (812) 
nan

>  <smiles>  (812) 
CC1OC(OCCCCCCCC2OCC(O)C2O)C(O)C1O

>  <submitter_email>  (812) 
nan

>  <disregarded>  (812) 


>  <LE>  (812) 
-0.456284

>  <submitter_institution>  (812) 
nan

>  <ref_mols>  (812) 
5MQX_0_A,6WOJ_0_A

>  <N_constrained_atoms>  (812) 
17.0

>  <ref_url>  (812) 
nan

>  <method>  (812) 
nan

>  <comRMSD>  (812) 
0.813542

>  <N_unconstrained_atoms>  (812) 
6.0

>  <∆∆G>  (812) 
-10.494538

>  <runtime>  (812) 
39.574715

>  <generation_date>  (812) 
nan

$$$$
5CMS_0_N_β-mArh-x0592_0_A_α
     RDKit          3D

 23 23  0  0  0  0  0  0  0  0999 V2000
   -1.6260   20.6950   -8.6170 O   0  0  0  0  0  0  0  0  0  0  0  0
   -0.8320   19.5080   -7.7410 P   0  0  0  0  0  0  0  0  0  0  0  0
   -1.3220   19.1150   -6.2010 O   0  0  0  0  0  0  0  0  0  0  0  0
    0.3760   18.7240   -8.4880 O   0  0  0  0  0  0  0  0  0  0  0  0
    0.2020   20.4930   -7.3460 O   0  0  0  0  0  0  0  0  0  0  0  0
   -1.5480   17.6270   -5.9290 P   0  0  0  0  0  0  0  0  0  0  0  0
   -0.0620   17.2370   -6.3740 O   0  0  0  0  0  0  0  0  0  0  0  0
   -2.7760   17.7700   -7.0320 O   0  0  0  0  0  0  0  0  0  0  0  0
   -1.9410   17.5280   -4.3300 O   0  0  0  0  0  0  0  0  0  0  0  0
   -2.4610   16.2330   -4.1780 C   0  0  0  0  0  0  0  0  0  0  0  0
   -1.8460   15.3450   -3.0960 C   0  0  0  0  0  0  0  0  0  0  0  0
   -2.1020   15.9470   -1.7480 C   0  0  0  0  0  0  0  0  0  0  0  0
   -2.3150   15.1480   -0.6320 N   0  0  0  0  0  0  0  0  0  0  0  0
   -3.2250   14.6730    0.0580 C   0  0  0  0  0  0  0  0  0  0  0  0
   -2.8570   13.9020    1.2520 N   0  0  0  0  0  0  0  0  0  0  0  0
   -4.6640   14.7970   -0.1430 C   0  0  0  0  0  0  0  0  0  0  0  0
   -5.3410   15.2180   -1.3050 C   0  0  0  0  0  0  0  0  0  0  0  0
   -5.6560   14.5230    0.7620 C   0  0  0  0  0  0  0  0  0  0  0  0
   -6.6660   15.1760   -1.0510 N   0  0  0  0  0  0  0  0  0  0  0  0
   -6.8410   14.7600    0.1860 N   0  0  0  0  0  0  0  0  0  0  0  0
   -8.1160   14.5700    0.8810 C   0  0  0  0  0  0  0  0  0  0  0  0
   -7.8090   14.0490    2.2830 C   0  0  0  0  0  0  0  0  0  0  0  0
   -7.0560   14.9550    3.0360 O   0  0  0  0  0  0  0  0  0  0  0  0
  1  2  1  0
  2  3  1  0
  2  4  1  0
  2  5  1  0
  3  6  1  0
  6  7  1  0
  6  8  1  0
  6  9  1  0
  9 10  1  0
 10 11  1  0
 11 12  1  0
 12 13  1  0
 13 14  2  3
 14 15  1  0
 14 16  1  0
 16 17  1  0
 16 18  2  0
 17 19  2  0
 18 20  1  0
 19 20  1  0
 20 21  1  0
 21 22  1  0
 22 23  1  0
M  CHG  2   4  -1   8  -1
M  END
>  <%Rank>  (813) 
61.984733

>  <N_hits>  (813) 
2

>  <submitter_name>  (813) 
nan

>  <original SMILES>  (813) 
nan

>  <∆G_unbound>  (813) 
0.8063

>  <∆G_bound>  (813) 
-9.904734

>  <regarded>  (813) 
5CMS_0_N_β,mArh-x0592_0_A_α

>  <ref_pdb>  (813) 
nan

>  <smiles>  (813) 
NC(=NCCCO[PH]([O-])(O)O[PH]([O-])(O)O)c1cnn(CCO)c1

>  <submitter_email>  (813) 
nan

>  <disregarded>  (813) 


>  <LE>  (813) 
-0.465697

>  <submitter_institution>  (813) 
nan

>  <ref_mols>  (813) 
5CMS_0_N,mArh-x0592_0_A

>  <N_constrained_atoms>  (813) 
20.0

>  <ref_url>  (813) 
nan

>  <method>  (813) 
nan

>  <comRMSD>  (813) 
0.980971

>  <N_unconstrained_atoms>  (813) 
3.0

>  <∆∆G>  (813) 
-10.711034

>  <runtime>  (813) 
37.75679

>  <generation_date>  (813) 
nan

$$$$
mArh-mac-120_0_A_α-mArh-5cb5_I_0_I_α
     RDKit          3D

 22 23  0  0  0  0  0  0  0  0999 V2000
   -6.5730   15.1850   -2.0970 C   0  0  0  0  0  0  0  0  0  0  0  0
   -5.1700   14.9880   -1.5890 C   0  0  0  0  0  0  0  0  0  0  0  0
   -4.0020   14.9350   -2.4240 C   0  0  0  0  0  0  0  0  0  0  0  0
   -5.0020   14.8490   -0.1900 C   0  0  0  0  0  0  0  0  0  0  0  0
   -3.8690   15.0640   -3.9620 C   0  0  0  0  0  0  0  0  0  0  0  0
   -3.7360   14.6630    0.3470 C   0  0  0  0  0  0  0  0  0  0  0  0
   -2.8030   14.7390   -1.7500 C   0  0  0  0  0  0  0  0  0  0  0  0
   -3.5270   14.5240    1.7270 N   0  0  0  0  0  0  0  0  0  0  0  0
   -2.7490   16.0980   -4.3670 C   0  0  0  0  0  0  0  0  0  0  0  0
   -2.6460   14.6040   -0.4160 N   0  0  0  0  0  0  0  0  0  0  0  0
   -2.8510   16.8840   -5.7170 C   0  0  0  0  0  0  0  0  0  0  0  0
   -2.2310   18.3550   -5.6760 C   0  0  0  0  0  0  0  0  0  0  0  0
   -2.8920   19.5190   -6.5300 C   0  0  0  0  0  0  0  0  0  0  0  0
   -3.9910   20.3930   -6.0280 O   0  0  0  0  0  0  0  0  0  0  0  0
   -4.7310   21.1780   -7.0320 C   0  0  2  0  0  0  0  0  0  0  0  0
   -4.0740   20.9460   -8.2510 O   0  0  0  0  0  0  0  0  0  0  0  0
   -4.5630   22.7410   -6.8350 C   0  0  2  0  0  0  0  0  0  0  0  0
   -5.7860   23.4800   -7.0120 O   0  0  0  0  0  0  0  0  0  0  0  0
   -2.9750   21.7560   -7.9470 C   0  0  2  0  0  0  0  0  0  0  0  0
   -3.6040   23.1200   -7.9770 C   0  0  1  0  0  0  0  0  0  0  0  0
   -1.7600   21.4010   -8.7230 C   0  0  0  0  0  0  0  0  0  0  0  0
   -4.3250   23.5210   -9.1660 O   0  0  0  0  0  0  0  0  0  0  0  0
  1  2  1  0
  2  3  2  0
  2  4  1  0
  3  5  1  0
  4  6  2  0
  3  7  1  0
  6  8  1  0
  5  9  1  0
  6 10  1  0
  7 10  2  0
  9 11  1  0
 11 12  1  0
 12 13  1  0
 13 14  1  0
 15 14  1  1
 15 16  1  0
 15 17  1  0
 17 18  1  6
 16 19  1  0
 17 20  1  0
 19 20  1  0
 19 21  1  6
 20 22  1  6
M  END
>  <%Rank>  (814) 
62.061069

>  <N_hits>  (814) 
2

>  <submitter_name>  (814) 
nan

>  <original SMILES>  (814) 
nan

>  <∆G_unbound>  (814) 
-0.077667

>  <∆G_bound>  (814) 
-8.457651

>  <regarded>  (814) 
mArh-mac-120_0_A_α,mArh-5cb5_I_0_I_α

>  <ref_pdb>  (814) 
nan

>  <smiles>  (814) 
Cc1cc(N)ncc1CCCCCOC1OC(C)C(O)C1O

>  <submitter_email>  (814) 
nan

>  <disregarded>  (814) 


>  <LE>  (814) 
-0.380908

>  <submitter_institution>  (814) 
nan

>  <ref_mols>  (814) 
mArh-mac-120_0_A,mArh-5cb5_I_0_I

>  <N_constrained_atoms>  (814) 
17.0

>  <ref_url>  (814) 
nan

>  <method>  (814) 
nan

>  <comRMSD>  (814) 
0.805892

>  <N_unconstrained_atoms>  (814) 
5.0

>  <∆∆G>  (814) 
-8.379984

>  <runtime>  (814) 
52.06412

>  <generation_date>  (814) 
nan

$$$$
5CB5_0_E_β-6WOJ_0_C_γ
     RDKit          3D

 18 18  0  0  0  0  0  0  0  0999 V2000
   -1.6160   20.9230   -8.8670 O   0  0  0  0  0  0  0  0  0  0  0  0
   -0.7020   19.8370   -8.0080 P   0  0  0  0  0  0  0  0  0  0  0  0
   -0.8930   19.7580   -6.4340 O   0  0  0  0  0  0  0  0  0  0  0  0
    0.2250   18.7640   -8.7920 O   0  0  0  0  0  0  0  0  0  0  0  0
    0.4810   20.7290   -7.9250 O   0  0  0  0  0  0  0  0  0  0  0  0
   -1.8840   18.5820   -5.9460 P   0  0  0  0  0  0  0  0  0  0  0  0
   -0.7960   17.5270   -6.0040 O   0  0  0  0  0  0  0  0  0  0  0  0
   -2.6900   17.6070   -7.0580 O   0  0  0  0  0  0  0  0  0  0  0  0
   -2.1490   18.2950   -4.4450 O   0  0  0  0  0  0  0  0  0  0  0  0
   -0.3510   17.2070   -4.7460 C   0  0  0  0  0  0  0  0  0  0  0  0
    1.0180   16.7460   -4.8100 C   0  0  0  0  0  0  0  0  0  0  0  0
    1.2680   15.3960   -4.2350 C   0  0  1  0  0  0  0  0  0  0  0  0
    0.5680   15.3140   -3.0190 O   0  0  0  0  0  0  0  0  0  0  0  0
    0.7820   14.2570   -5.0610 C   0  0  1  0  0  0  0  0  0  0  0  0
    1.5990   13.1510   -4.8350 O   0  0  0  0  0  0  0  0  0  0  0  0
   -0.3960   14.3430   -3.0840 C   0  0  0  0  0  0  0  0  0  0  0  0
   -0.5910   13.9860   -4.5220 C   0  0  2  0  0  0  0  0  0  0  0  0
   -0.8600   12.6210   -4.7090 O   0  0  0  0  0  0  0  0  0  0  0  0
  1  2  1  0
  2  3  1  0
  2  4  1  0
  2  5  1  0
  3  6  1  0
  6  7  1  0
  6  8  1  0
  6  9  1  0
  7 10  1  0
 10 11  1  0
 12 11  1  6
 12 13  1  0
 12 14  1  0
 14 15  1  1
 13 16  1  0
 14 17  1  0
 16 17  1  0
 17 18  1  1
M  CHG  2   4  -1   8  -1
M  END
>  <%Rank>  (815) 
62.137405

>  <N_hits>  (815) 
2

>  <submitter_name>  (815) 
nan

>  <original SMILES>  (815) 
nan

>  <∆G_unbound>  (815) 
0.600635

>  <∆G_bound>  (815) 
-7.924214

>  <regarded>  (815) 
5CB5_0_E_β,6WOJ_0_C_γ

>  <ref_pdb>  (815) 
nan

>  <smiles>  (815) 
[O-][PH](O)(O)O[PH]([O-])(O)OCCC1OCC(O)C1O

>  <submitter_email>  (815) 
nan

>  <disregarded>  (815) 


>  <LE>  (815) 
-0.473603

>  <submitter_institution>  (815) 
nan

>  <ref_mols>  (815) 
5CB5_0_E,6WOJ_0_C

>  <N_constrained_atoms>  (815) 
17.0

>  <ref_url>  (815) 
nan

>  <method>  (815) 
nan

>  <comRMSD>  (815) 
0.970604

>  <N_unconstrained_atoms>  (815) 
1.0

>  <∆∆G>  (815) 
-8.524849

>  <runtime>  (815) 
28.989391

>  <generation_date>  (815) 
nan

$$$$
mArh-x0290_0_A_α-5CMS_0_N_α
     RDKit          3D

 29 30  0  0  0  0  0  0  0  0999 V2000
   -7.7250   13.8050    0.8220 N   0  0  0  0  0  0  0  0  0  0  0  0
   -8.6030   14.9770    0.7840 C   0  0  0  0  0  0  0  0  0  0  0  0
   -6.4940   14.0650    1.6160 C   0  0  0  0  0  0  0  0  0  0  0  0
   -5.2850   14.4110    0.7260 C   0  0  0  0  0  0  0  0  0  0  0  0
   -5.3920   14.3670   -0.4960 O   0  0  0  0  0  0  0  0  0  0  0  0
   -4.1500   14.7460    1.4460 N   0  0  0  0  0  0  0  0  0  0  0  0
   -2.8480   14.7120    0.9380 C   0  0  0  0  0  0  0  0  0  0  0  0
   -1.7830   14.6000    1.7620 N   0  0  0  0  0  0  0  0  0  0  0  0
   -2.6980   14.7960   -0.4440 C   0  0  0  0  0  0  0  0  0  0  0  0
   -0.5550   14.5710    1.2080 C   0  0  0  0  0  0  0  0  0  0  0  0
   -1.4170   14.7600   -1.0070 C   0  0  0  0  0  0  0  0  0  0  0  0
   -1.2340   14.8380   -2.5010 C   0  0  0  0  0  0  0  0  0  0  0  0
   -0.3170   14.6470   -0.1490 C   0  0  0  0  0  0  0  0  0  0  0  0
   -0.3680   16.0110   -2.9860 C   0  0  0  0  0  0  0  0  0  0  0  0
   -0.9620   16.6980   -4.2210 C   0  0  0  0  0  0  0  0  0  0  0  0
   -0.1390   17.8690   -4.7550 C   0  0  0  0  0  0  0  0  0  0  0  0
   -0.2810   18.1660   -6.2550 C   0  0  0  0  0  0  0  0  0  0  0  0
   -0.5650   19.6170   -6.6340 C   0  0  0  0  0  0  0  0  0  0  0  0
   -1.5260   19.8230   -7.7740 C   0  0  0  0  0  0  0  0  0  0  0  0
   -1.1460   20.9650   -8.7190 C   0  0  0  0  0  0  0  0  0  0  0  0
   -1.9720   22.2530   -8.6140 C   0  0  0  0  0  0  0  0  0  0  0  0
   -3.1320   22.3090   -9.6390 C   0  0  1  0  0  0  0  0  0  0  0  0
   -4.2680   21.6730   -9.0410 O   0  0  0  0  0  0  0  0  0  0  0  0
   -3.7370   23.7040   -9.9260 C   0  0  1  0  0  0  0  0  0  0  0  0
   -3.2180   24.5550  -10.9040 O   0  0  0  0  0  0  0  0  0  0  0  0
   -5.3860   22.5430   -9.3080 C   0  0  2  0  0  0  0  0  0  0  0  0
   -5.0290   23.3440  -10.5240 C   0  0  2  0  0  0  0  0  0  0  0  0
   -5.4460   23.5030   -8.2480 O   0  0  0  0  0  0  0  0  0  0  0  0
   -4.8520   22.6260  -11.7440 O   0  0  0  0  0  0  0  0  0  0  0  0
  1  2  1  0
  1  3  1  0
  3  4  1  0
  4  5  2  0
  4  6  1  0
  6  7  1  0
  7  8  2  0
  7  9  1  0
  8 10  1  0
  9 11  2  0
 11 12  1  0
 10 13  2  0
 11 13  1  0
 12 14  1  0
 14 15  1  0
 15 16  1  0
 16 17  1  0
 17 18  1  0
 18 19  1  0
 19 20  1  0
 20 21  1  0
 22 21  1  1
 22 23  1  0
 22 24  1  0
 24 25  1  6
 23 26  1  0
 24 27  1  0
 26 27  1  0
 26 28  1  1
 27 29  1  6
M  END
>  <%Rank>  (816) 
62.21374

>  <N_hits>  (816) 
2

>  <submitter_name>  (816) 
nan

>  <original SMILES>  (816) 
nan

>  <∆G_unbound>  (816) 
2.463584

>  <∆G_bound>  (816) 
-12.364475

>  <regarded>  (816) 
mArh-x0290_0_A_α,5CMS_0_N_α

>  <ref_pdb>  (816) 
nan

>  <smiles>  (816) 
CNCC(=O)Nc1cc(CCCCCCCCCC2OC(O)C(O)C2O)ccn1

>  <submitter_email>  (816) 
nan

>  <disregarded>  (816) 


>  <LE>  (816) 
-0.511312

>  <submitter_institution>  (816) 
nan

>  <ref_mols>  (816) 
mArh-x0290_0_A,5CMS_0_N

>  <N_constrained_atoms>  (816) 
22.0

>  <ref_url>  (816) 
nan

>  <method>  (816) 
nan

>  <comRMSD>  (816) 
0.957337

>  <N_unconstrained_atoms>  (816) 
7.0

>  <∆∆G>  (816) 
-14.828059

>  <runtime>  (816) 
49.116801

>  <generation_date>  (816) 
nan

$$$$
mArh-x0253_0_A_α-mArh-5lw0_A_0_A_α
     RDKit          3D

 30 31  0  0  0  0  0  0  0  0999 V2000
    0.5290   11.5400   -4.9680 N   0  0  0  0  0  0  0  0  0  0  0  0
    0.5920   11.9840   -6.2500 C   0  0  0  0  0  0  0  0  0  0  0  0
    0.8980   13.2480   -6.3480 N   0  0  0  0  0  0  0  0  0  0  0  0
    1.1090   12.3260   -3.8900 C   0  0  0  0  0  0  0  0  0  0  0  0
    0.5330   11.8860   -2.5640 C   0  0  0  0  0  0  0  0  0  0  0  0
    0.2630   10.9490   -7.3250 C   0  0  0  0  0  0  0  0  0  0  0  0
    0.7430   12.4210   -1.4820 O   0  0  0  0  0  0  0  0  0  0  0  0
   -0.2750   10.8110   -2.6830 O   0  0  0  0  0  0  0  0  0  0  0  0
    1.1380   14.0490   -5.1100 C   0  0  0  0  0  0  0  0  0  0  0  0
   -0.7140   10.0000   -7.0000 C   0  0  0  0  0  0  0  0  0  0  0  0
    0.8560   10.8810   -8.5980 C   0  0  0  0  0  0  0  0  0  0  0  0
    1.0860   15.6010   -5.2390 C   0  0  0  0  0  0  0  0  0  0  0  0
   -1.0950    9.0120   -7.9230 C   0  0  0  0  0  0  0  0  0  0  0  0
    0.4810    9.9030   -9.5170 C   0  0  0  0  0  0  0  0  0  0  0  0
   -2.1470    8.0050   -7.5570 C   0  0  0  0  0  0  0  0  0  0  0  0
   -0.2870   16.2830   -5.0810 C   0  0  0  0  0  0  0  0  0  0  0  0
   -0.4920    8.9720   -9.1820 C   0  0  0  0  0  0  0  0  0  0  0  0
   -0.2970   17.6860   -5.7400 C   0  0  0  0  0  0  0  0  0  0  0  0
   -1.5660   18.5050   -5.4350 C   0  0  0  0  0  0  0  0  0  0  0  0
   -2.2580   19.1770   -6.6450 C   0  0  0  0  0  0  0  0  0  0  0  0
   -1.4040   20.0920   -7.5490 C   0  0  0  0  0  0  0  0  0  0  0  0
   -2.0520   21.4730   -7.8550 C   0  0  0  0  0  0  0  0  0  0  0  0
   -3.4070   21.4650   -8.5900 C   0  0  1  0  0  0  0  0  0  0  0  0
   -4.2570   20.4820   -7.9150 O   0  0  0  0  0  0  0  0  0  0  0  0
   -4.2760   22.7290   -8.6460 C   0  0  1  0  0  0  0  0  0  0  0  0
   -5.0570   22.8620   -9.8280 O   0  0  0  0  0  0  0  0  0  0  0  0
   -5.5260   21.0780   -7.7900 C   0  0  2  0  0  0  0  0  0  0  0  0
   -5.1670   22.4980   -7.4520 C   0  0  2  0  0  0  0  0  0  0  0  0
   -6.3020   20.4520   -6.8020 O   0  0  0  0  0  0  0  0  0  0  0  0
   -6.2630   23.3940   -7.4230 O   0  0  0  0  0  0  0  0  0  0  0  0
  1  2  1  0
  2  3  2  3
  1  4  1  0
  4  5  1  0
  2  6  1  0
  5  7  2  0
  5  8  1  0
  3  9  1  0
  6 10  2  0
  6 11  1  0
  9 12  1  0
 10 13  1  0
 11 14  2  0
 13 15  1  0
 12 16  1  0
 13 17  2  0
 14 17  1  0
 16 18  1  0
 18 19  1  0
 19 20  1  0
 20 21  1  0
 21 22  1  0
 23 22  1  1
 23 24  1  0
 23 25  1  0
 25 26  1  6
 24 27  1  0
 25 28  1  0
 27 28  1  0
 27 29  1  1
 28 30  1  6
M  END
>  <%Rank>  (817) 
62.290076

>  <N_hits>  (817) 
2

>  <submitter_name>  (817) 
nan

>  <original SMILES>  (817) 
nan

>  <∆G_unbound>  (817) 
0.362489

>  <∆G_bound>  (817) 
-6.837986

>  <regarded>  (817) 
mArh-x0253_0_A_α,mArh-5lw0_A_0_A_α

>  <ref_pdb>  (817) 
nan

>  <smiles>  (817) 
Cc1cccc(C(=NCCCCCCCCC2OC(O)C(O)C2O)NCC(=O)O)c1

>  <submitter_email>  (817) 
nan

>  <disregarded>  (817) 


>  <LE>  (817) 
-0.240016

>  <submitter_institution>  (817) 
nan

>  <ref_mols>  (817) 
mArh-x0253_0_A,mArh-5lw0_A_0_A

>  <N_constrained_atoms>  (817) 
23.0

>  <ref_url>  (817) 
nan

>  <method>  (817) 
nan

>  <comRMSD>  (817) 
0.845862

>  <N_unconstrained_atoms>  (817) 
7.0

>  <∆∆G>  (817) 
-7.200475

>  <runtime>  (817) 
48.086093

>  <generation_date>  (817) 
nan

$$$$
mArh-5cb5_M_1_M_α-mArh-5cb5_N_0_N_α
     RDKit          3D

 12 12  0  0  0  0  0  0  0  0999 V2000
   -1.7900   21.7730   -8.1330 C   0  0  0  0  0  0  0  0  0  0  0  0
   -3.2330   21.7690   -8.6080 C   0  0  2  0  0  0  0  0  0  0  0  0
   -3.9140   23.1160   -8.4750 C   0  0  1  0  0  0  0  0  0  0  0  0
   -3.9660   20.8360   -7.7950 O   0  0  0  0  0  0  0  0  0  0  0  0
   -3.9490   23.8660   -9.6740 O   0  0  0  0  0  0  0  0  0  0  0  0
   -5.3300   22.7270   -8.1640 C   0  0  1  0  0  0  0  0  0  0  0  0
   -5.2630   21.3610   -7.5030 C   0  0  2  0  0  0  0  0  0  0  0  0
   -5.9520   23.7840   -7.4430 O   0  0  0  0  0  0  0  0  0  0  0  0
   -5.4990   21.3980   -6.1100 O   0  0  0  0  0  0  0  0  0  0  0  0
   -6.7260   24.4390   -8.3460 C   0  0  0  0  0  0  0  0  0  0  0  0
   -5.9880   25.5530   -8.9880 C   0  0  0  0  0  0  0  0  0  0  0  0
   -7.8710   24.1500   -8.6190 O   0  0  0  0  0  0  0  0  0  0  0  0
  2  1  1  1
  2  3  1  0
  2  4  1  0
  3  5  1  6
  3  6  1  0
  4  7  1  0
  6  7  1  0
  6  8  1  1
  7  9  1  1
  8 10  1  0
 10 11  1  0
 10 12  2  0
M  END
>  <%Rank>  (818) 
62.366412

>  <N_hits>  (818) 
2

>  <submitter_name>  (818) 
nan

>  <original SMILES>  (818) 
nan

>  <∆G_unbound>  (818) 
0.761517

>  <∆G_bound>  (818) 
-3.903787

>  <regarded>  (818) 
mArh-5cb5_M_1_M_α,mArh-5cb5_N_0_N_α

>  <ref_pdb>  (818) 
nan

>  <smiles>  (818) 
CC(=O)OC1C(O)OC(C)C1O

>  <submitter_email>  (818) 
nan

>  <disregarded>  (818) 


>  <LE>  (818) 
-0.388775

>  <submitter_institution>  (818) 
nan

>  <ref_mols>  (818) 
mArh-5cb5_M_1_M,mArh-5cb5_N_0_N

>  <N_constrained_atoms>  (818) 
12.0

>  <ref_url>  (818) 
nan

>  <method>  (818) 
nan

>  <comRMSD>  (818) 
0.832966

>  <N_unconstrained_atoms>  (818) 
0.0

>  <∆∆G>  (818) 
-4.665304

>  <runtime>  (818) 
44.297425

>  <generation_date>  (818) 
nan

$$$$
mArh-x0844_0_A_α-2BFQ_1_A_β
     RDKit          3D

 20 20  0  0  0  0  0  0  0  0999 V2000
   -7.5240   14.7700   -0.2640 O   0  0  0  0  0  0  0  0  0  0  0  0
   -6.2870   14.9160   -0.1620 C   0  0  0  0  0  0  0  0  0  0  0  0
   -5.6740   14.7660    1.1450 N   0  0  0  0  0  0  0  0  0  0  0  0
   -5.3720   15.2500   -1.2910 C   0  0  0  0  0  0  0  0  0  0  0  0
   -4.3400   15.2740    1.2270 C   0  0  0  0  0  0  0  0  0  0  0  0
   -3.9510   14.6740   -1.0990 C   0  0  1  0  0  0  0  0  0  0  0  0
   -3.0850   15.0420   -2.0660 O   0  0  0  0  0  0  0  0  0  0  0  0
   -3.5220   15.2420    0.2020 C   0  0  0  0  0  0  0  0  0  0  0  0
   -3.3750   15.0950   -3.3630 C   0  0  0  0  0  0  0  0  0  0  0  0
   -2.3620   15.3260   -4.4310 C   0  0  0  0  0  0  0  0  0  0  0  0
   -1.3700   16.4190   -4.1980 C   0  0  0  0  0  0  0  0  0  0  0  0
   -0.9460   16.8310   -5.4710 O   0  0  0  0  0  0  0  0  0  0  0  0
   -1.6960   18.1940   -5.9670 P   0  0  0  0  0  0  0  0  0  0  0  0
   -0.3610   18.9180   -6.1910 O   0  0  0  0  0  0  0  0  0  0  0  0
   -2.2440   19.2850   -4.9250 O   0  0  0  0  0  0  0  0  0  0  0  0
   -2.1000   18.3840   -7.5290 O   0  0  0  0  0  0  0  0  0  0  0  0
   -0.0980   19.8400   -7.5580 P   0  0  0  0  0  0  0  0  0  0  0  0
   -1.0790   19.7280   -8.8610 O   0  0  0  0  0  0  0  0  0  0  0  0
   -1.0840   20.8410   -7.0700 O   0  0  0  0  0  0  0  0  0  0  0  0
    1.1320   20.9020   -7.5550 O   0  0  0  0  0  0  0  0  0  0  0  0
  1  2  2  0
  2  3  1  0
  2  4  1  0
  3  5  1  0
  4  6  1  0
  6  7  1  6
  5  8  2  0
  6  8  1  0
  7  9  1  0
  9 10  1  0
 10 11  1  0
 11 12  1  0
 12 13  1  0
 13 14  1  0
 13 15  1  0
 13 16  1  0
 14 17  1  0
 17 18  1  0
 17 19  1  0
 17 20  1  0
M  CHG  2  15  -1  19  -1
M  END
>  <%Rank>  (819) 
62.442748

>  <N_hits>  (819) 
2

>  <submitter_name>  (819) 
nan

>  <original SMILES>  (819) 
nan

>  <∆G_unbound>  (819) 
0.476248

>  <∆G_bound>  (819) 
-7.505998

>  <regarded>  (819) 
mArh-x0844_0_A_α,2BFQ_1_A_β

>  <ref_pdb>  (819) 
nan

>  <smiles>  (819) 
O=C1CC(OCCCO[PH]([O-])(O)O[PH]([O-])(O)O)C=CN1

>  <submitter_email>  (819) 
nan

>  <disregarded>  (819) 


>  <LE>  (819) 
-0.399112

>  <submitter_institution>  (819) 
nan

>  <ref_mols>  (819) 
mArh-x0844_0_A,2BFQ_1_A

>  <N_constrained_atoms>  (819) 
17.0

>  <ref_url>  (819) 
nan

>  <method>  (819) 
nan

>  <comRMSD>  (819) 
0.877989

>  <N_unconstrained_atoms>  (819) 
3.0

>  <∆∆G>  (819) 
-7.982246

>  <runtime>  (819) 
36.909987

>  <generation_date>  (819) 
nan

$$$$
mArh-5cb5_Q_0_Q_α-MAC-194_0_A_α
     RDKit          3D

 27 29  0  0  0  0  0  0  0  0999 V2000
   -1.8770   21.5870   -8.3340 C   0  0  0  0  0  0  0  0  0  0  0  0
   -3.2650   21.9330   -8.8460 C   0  0  1  0  0  0  0  0  0  0  0  0
   -4.2360   20.9900   -8.3840 O   0  0  0  0  0  0  0  0  0  0  0  0
   -3.7360   23.2660   -8.3260 C   0  0  1  0  0  0  0  0  0  0  0  0
   -4.6890   23.8750   -9.2020 O   0  0  0  0  0  0  0  0  0  0  0  0
   -4.5690   21.3330   -7.0480 C   0  0  2  0  0  0  0  0  0  0  0  0
   -4.3190   22.8760   -6.9550 C   0  0  2  0  0  0  0  0  0  0  0  0
   -3.7630   20.5490   -6.0730 O   0  0  0  0  0  0  0  0  0  0  0  0
   -5.4880   23.6790   -6.7260 O   0  0  0  0  0  0  0  0  0  0  0  0
   -2.8880   19.5130   -6.6660 C   0  0  0  0  0  0  0  0  0  0  0  0
   -2.3020   18.3150   -5.7980 C   0  0  0  0  0  0  0  0  0  0  0  0
   -3.0020   16.8710   -5.8770 C   0  0  0  0  0  0  0  0  0  0  0  0
   -3.1080   15.9110   -4.6460 C   0  0  0  0  0  0  0  0  0  0  0  0
   -4.3620   14.9560   -4.4490 C   0  0  0  0  0  0  0  0  0  0  0  0
   -4.8600   14.9000   -2.9660 C   0  0  0  0  0  0  0  0  0  0  0  0
   -6.3140   14.8700   -2.5570 N   0  0  0  0  0  0  0  0  0  0  0  0
   -6.3210   14.7770   -1.2520 C   0  0  0  0  0  0  0  0  0  0  0  0
   -7.2630   14.6970   -0.2170 N   0  0  0  0  0  0  0  0  0  0  0  0
   -4.9310   14.7500   -0.7960 C   0  0  0  0  0  0  0  0  0  0  0  0
   -6.8940   14.6450    1.1140 C   0  0  0  0  0  0  0  0  0  0  0  0
   -4.6530   14.6830    0.5550 C   0  0  0  0  0  0  0  0  0  0  0  0
   -3.9290   14.7930   -1.7540 C   0  0  0  0  0  0  0  0  0  0  0  0
   -7.8970   14.6080    2.0330 N   0  0  0  0  0  0  0  0  0  0  0  0
   -5.6670   14.6430    1.5300 N   0  0  0  0  0  0  0  0  0  0  0  0
   -3.3130   14.6560    0.9430 C   0  0  0  0  0  0  0  0  0  0  0  0
   -2.6100   14.7680   -1.3710 C   0  0  0  0  0  0  0  0  0  0  0  0
   -2.2960   14.6990   -0.0150 C   0  0  0  0  0  0  0  0  0  0  0  0
  2  1  1  1
  2  3  1  0
  2  4  1  0
  4  5  1  6
  3  6  1  0
  4  7  1  0
  6  7  1  0
  6  8  1  1
  7  9  1  6
  8 10  1  0
 10 11  1  0
 11 12  1  0
 12 13  1  0
 13 14  1  0
 14 15  1  0
 15 16  1  0
 16 17  2  3
 17 18  1  0
 17 19  1  0
 18 20  1  0
 19 21  2  0
 19 22  1  0
 20 23  1  0
 20 24  2  0
 21 24  1  0
 21 25  1  0
 22 26  2  0
 25 27  2  0
 26 27  1  0
M  END
>  <%Rank>  (820) 
62.519084

>  <N_hits>  (820) 
2

>  <submitter_name>  (820) 
nan

>  <original SMILES>  (820) 
nan

>  <∆G_unbound>  (820) 
0.121538

>  <∆G_bound>  (820) 
-6.662777

>  <regarded>  (820) 
mArh-5cb5_Q_0_Q_α,MAC-194_0_A_α

>  <ref_pdb>  (820) 
nan

>  <smiles>  (820) 
CC1OC(OCCCCCCN=c2[nH]c(N)nc3ccccc23)C(O)C1O

>  <submitter_email>  (820) 
nan

>  <disregarded>  (820) 


>  <LE>  (820) 
-0.251271

>  <submitter_institution>  (820) 
nan

>  <ref_mols>  (820) 
mArh-5cb5_Q_0_Q,MAC-194_0_A

>  <N_constrained_atoms>  (820) 
21.0

>  <ref_url>  (820) 
nan

>  <method>  (820) 
nan

>  <comRMSD>  (820) 
0.829141

>  <N_unconstrained_atoms>  (820) 
6.0

>  <∆∆G>  (820) 
-6.784316

>  <runtime>  (820) 
45.536918

>  <generation_date>  (820) 
nan

$$$$
5CMS_0_N_β-mArh-5cb5_M_1_M_β
     RDKit          3D

  9  8  0  0  0  0  0  0  0  0999 V2000
   -1.6890   20.8990   -8.5810 O   0  0  0  0  0  0  0  0  0  0  0  0
   -0.4300   20.0110   -8.1220 P   0  0  0  0  0  0  0  0  0  0  0  0
   -0.8170   19.6570   -6.7110 O   0  0  0  0  0  0  0  0  0  0  0  0
    0.9430   20.7120   -7.5680 O   0  0  0  0  0  0  0  0  0  0  0  0
   -0.3700   18.4100   -8.5880 O   0  0  0  0  0  0  0  0  0  0  0  0
   -1.7260   18.4440   -6.1060 P   0  0  0  0  0  0  0  0  0  0  0  0
   -0.6080   17.4420   -6.2930 O   0  0  0  0  0  0  0  0  0  0  0  0
   -2.7390   17.5450   -6.9800 O   0  0  0  0  0  0  0  0  0  0  0  0
   -1.7770   18.2450   -4.4830 O   0  0  0  0  0  0  0  0  0  0  0  0
  1  2  1  0
  2  3  1  0
  2  4  1  0
  2  5  1  0
  3  6  1  0
  6  7  1  0
  6  8  1  0
  6  9  1  0
M  CHG  2   4  -1   8  -1
M  END
>  <%Rank>  (821) 
62.59542

>  <N_hits>  (821) 
2

>  <submitter_name>  (821) 
nan

>  <original SMILES>  (821) 
nan

>  <∆G_unbound>  (821) 
0.654534

>  <∆G_bound>  (821) 
-4.894455

>  <regarded>  (821) 
5CMS_0_N_β,mArh-5cb5_M_1_M_β

>  <ref_pdb>  (821) 
nan

>  <smiles>  (821) 
[O-][PH](O)(O)O[PH]([O-])(O)O

>  <submitter_email>  (821) 
nan

>  <disregarded>  (821) 


>  <LE>  (821) 
-0.616554

>  <submitter_institution>  (821) 
nan

>  <ref_mols>  (821) 
5CMS_0_N,mArh-5cb5_M_1_M

>  <N_constrained_atoms>  (821) 
9.0

>  <ref_url>  (821) 
nan

>  <method>  (821) 
nan

>  <comRMSD>  (821) 
0.853174

>  <N_unconstrained_atoms>  (821) 
0.0

>  <∆∆G>  (821) 
-5.548989

>  <runtime>  (821) 
27.569315

>  <generation_date>  (821) 
nan

$$$$
6WOJ_0_B_α-mArh-EU0241_0_A_α
     RDKit          3D

 24 26  0  0  0  0  0  0  0  0999 V2000
   -1.5470   21.6780   -8.2250 C   0  0  0  0  0  0  0  0  0  0  0  0
   -2.8170   21.9710   -7.4810 C   0  0  2  0  0  0  0  0  0  0  0  0
   -3.6820   20.8580   -7.4860 O   0  0  0  0  0  0  0  0  0  0  0  0
   -3.8100   22.9900   -7.9740 C   0  0  2  0  0  0  0  0  0  0  0  0
   -3.3850   24.3230   -8.0440 O   0  0  0  0  0  0  0  0  0  0  0  0
   -4.5390   21.2520   -6.4270 C   0  0  2  0  0  0  0  0  0  0  0  0
   -4.8430   22.7350   -6.8710 C   0  0  1  0  0  0  0  0  0  0  0  0
   -3.7850   20.7560   -5.2740 O   0  0  0  0  0  0  0  0  0  0  0  0
   -4.8760   23.7870   -5.8990 O   0  0  0  0  0  0  0  0  0  0  0  0
   -2.5230   19.9980   -5.6310 C   0  0  0  0  0  0  0  0  0  0  0  0
   -2.3520   18.4040   -5.8570 C   0  0  0  0  0  0  0  0  0  0  0  0
   -1.7300   17.5780   -4.6400 C   0  0  0  0  0  0  0  0  0  0  0  0
   -2.1770   16.1140   -4.1120 C   0  0  0  0  0  0  0  0  0  0  0  0
   -3.4160   15.6840   -3.1750 C   0  0  0  0  0  0  0  0  0  0  0  0
   -3.4060   15.5480   -1.6260 C   0  0  0  0  0  0  0  0  0  0  0  0
   -2.2750   15.0940   -0.9000 C   0  0  0  0  0  0  0  0  0  0  0  0
   -4.3930   15.7830   -0.7570 N   0  0  0  0  0  0  0  0  0  0  0  0
   -1.0760   14.7170   -1.2320 C   0  0  0  0  0  0  0  0  0  0  0  0
   -2.6850   15.0930    0.5200 C   0  0  0  0  0  0  0  0  0  0  0  0
   -3.9210   15.4970    0.6090 N   0  0  0  0  0  0  0  0  0  0  0  0
   -0.1390   14.3020   -0.2230 C   0  0  0  0  0  0  0  0  0  0  0  0
   -1.7870   14.6910    1.4940 N   0  0  0  0  0  0  0  0  0  0  0  0
    1.0730   13.9330   -0.7250 N   0  0  0  0  0  0  0  0  0  0  0  0
   -0.5190   14.3110    1.0830 C   0  0  0  0  0  0  0  0  0  0  0  0
  2  1  1  6
  2  3  1  0
  2  4  1  0
  4  5  1  1
  3  6  1  0
  4  7  1  0
  6  7  1  0
  6  8  1  1
  7  9  1  1
  8 10  1  0
 10 11  1  0
 11 12  1  0
 12 13  1  0
 13 14  1  0
 14 15  1  0
 15 16  1  0
 15 17  2  0
 16 18  2  0
 16 19  1  0
 17 20  1  0
 19 20  2  0
 18 21  1  0
 19 22  1  0
 21 23  1  0
 21 24  2  0
 22 24  1  0
M  END
>  <%Rank>  (822) 
62.671756

>  <N_hits>  (822) 
2

>  <submitter_name>  (822) 
nan

>  <original SMILES>  (822) 
nan

>  <∆G_unbound>  (822) 
0.26606

>  <∆G_bound>  (822) 
-10.809901

>  <regarded>  (822) 
6WOJ_0_B_α,mArh-EU0241_0_A_α

>  <ref_pdb>  (822) 
nan

>  <smiles>  (822) 
CC1OC(OCCCCCc2nnc3[nH]cc(N)cc2-3)C(O)C1O

>  <submitter_email>  (822) 
nan

>  <disregarded>  (822) 


>  <LE>  (822) 
-0.461498

>  <submitter_institution>  (822) 
nan

>  <ref_mols>  (822) 
6WOJ_0_B,mArh-EU0241_0_A

>  <N_constrained_atoms>  (822) 
19.0

>  <ref_url>  (822) 
nan

>  <method>  (822) 
nan

>  <comRMSD>  (822) 
0.911436

>  <N_unconstrained_atoms>  (822) 
5.0

>  <∆∆G>  (822) 
-11.075961

>  <runtime>  (822) 
29.178503

>  <generation_date>  (822) 
nan

$$$$
mArh-x0962_2_B_α-5CMS_0_I_δ
     RDKit          3D

 19 21  0  0  0  0  0  0  0  0999 V2000
  -11.4920   16.3610    1.4970 N   0  0  0  0  0  0  0  0  0  0  0  0
  -10.5380   16.0320    2.0600 C   0  0  0  0  0  0  0  0  0  0  0  0
   -9.3140   15.6090    2.6180 C   0  0  0  0  0  0  0  0  0  0  0  0
   -8.8850   15.8400    3.9080 N   0  0  0  0  0  0  0  0  0  0  0  0
   -8.4040   14.9150    1.9020 C   0  0  0  0  0  0  0  0  0  0  0  0
   -7.6860   15.2770    3.9530 C   0  0  0  0  0  0  0  0  0  0  0  0
   -7.3760   14.7120    2.7270 N   0  0  0  0  0  0  0  0  0  0  0  0
   -6.1840   14.0140    2.2710 C   0  0  0  0  0  0  0  0  0  0  0  0
   -5.0690   15.0410    1.9630 C   0  0  0  0  0  0  0  0  0  0  0  0
   -3.7460   14.4510    1.9110 N   0  0  0  0  0  0  0  0  0  0  0  0
   -2.7550   15.0600    1.0510 C   0  0  2  0  0  0  0  0  0  0  0  0
   -2.7830   14.6200   -0.4170 C   0  0  2  0  0  0  0  0  0  0  0  0
   -1.4470   14.8550    1.6530 N   0  0  0  0  0  0  0  0  0  0  0  0
   -1.5760   15.2720   -1.0510 C   0  0  2  0  0  0  0  0  0  0  0  0
   -3.8340   15.0370   -1.3360 N   0  0  0  0  0  0  0  0  0  0  0  0
   -0.3190   15.3360    0.8790 C   0  0  0  0  0  0  0  0  0  0  0  0
   -1.7100   14.8430   -2.4130 N   0  0  0  0  0  0  0  0  0  0  0  0
   -3.1560   14.9510   -2.6370 C   0  0  0  0  0  0  0  0  0  0  0  0
   -0.3510   14.8430   -0.4680 N   0  0  0  0  0  0  0  0  0  0  0  0
  1  2  3  0
  2  3  1  0
  3  4  1  0
  3  5  2  0
  4  6  2  0
  5  7  1  0
  6  7  1  0
  7  8  1  0
  8  9  1  0
  9 10  1  0
 11 10  1  1
 11 12  1  0
 11 13  1  0
 12 14  1  0
 12 15  1  6
 13 16  1  0
 14 17  1  6
 15 18  1  0
 17 18  1  0
 14 19  1  0
 16 19  1  0
M  END
>  <%Rank>  (823) 
62.748092

>  <N_hits>  (823) 
2

>  <submitter_name>  (823) 
nan

>  <original SMILES>  (823) 
nan

>  <∆G_unbound>  (823) 
0.403735

>  <∆G_bound>  (823) 
-1.988304

>  <regarded>  (823) 
mArh-x0962_2_B_α,5CMS_0_I_δ

>  <ref_pdb>  (823) 
nan

>  <smiles>  (823) 
N#Cc1cn(CCNC2NCNC3NCNC23)cn1

>  <submitter_email>  (823) 
nan

>  <disregarded>  (823) 


>  <LE>  (823) 
-0.125897

>  <submitter_institution>  (823) 
nan

>  <ref_mols>  (823) 
mArh-x0962_2_B,5CMS_0_I

>  <N_constrained_atoms>  (823) 
17.0

>  <ref_url>  (823) 
nan

>  <method>  (823) 
nan

>  <comRMSD>  (823) 
0.774896

>  <N_unconstrained_atoms>  (823) 
2.0

>  <∆∆G>  (823) 
-2.39204

>  <runtime>  (823) 
27.215338

>  <generation_date>  (823) 
nan

$$$$
5LW0_1_B_β-5CB5_0_G_α
     RDKit          3D

 20 20  0  0  0  0  0  0  0  0999 V2000
   -1.2250   20.0050   -9.0490 O   0  0  0  0  0  0  0  0  0  0  0  0
   -0.8340   19.1630   -7.8660 P   0  0  0  0  0  0  0  0  0  0  0  0
   -0.6770   18.0810   -6.8110 O   0  0  0  0  0  0  0  0  0  0  0  0
   -0.2050   20.3230   -7.0690 O   0  0  0  0  0  0  0  0  0  0  0  0
    0.1080   18.2970   -8.8930 O   0  0  0  0  0  0  0  0  0  0  0  0
   -1.9160   17.5580   -5.9550 P   0  0  0  0  0  0  0  0  0  0  0  0
    0.0930   21.4440   -7.7190 C   0  0  0  0  0  0  0  0  0  0  0  0
   -1.2190   16.3460   -5.3190 O   0  0  0  0  0  0  0  0  0  0  0  0
   -3.1220   16.5470   -6.5290 O   0  0  0  0  0  0  0  0  0  0  0  0
   -2.0510   18.2660   -4.4720 O   0  0  0  0  0  0  0  0  0  0  0  0
   -1.0910   22.3920   -7.7560 C   0  0  0  0  0  0  0  0  0  0  0  0
   -2.4280   21.6920   -7.5080 C   0  0  0  0  0  0  0  0  0  0  0  0
   -3.3730   21.9640   -8.6330 C   0  0  1  0  0  0  0  0  0  0  0  0
   -4.5430   21.2960   -8.3950 O   0  0  0  0  0  0  0  0  0  0  0  0
   -3.8030   23.3960   -8.7000 C   0  0  1  0  0  0  0  0  0  0  0  0
   -4.1730   23.6950   -9.9880 O   0  0  0  0  0  0  0  0  0  0  0  0
   -5.4430   22.0460   -7.6660 C   0  0  2  0  0  0  0  0  0  0  0  0
   -4.9610   23.4730   -7.7470 C   0  0  2  0  0  0  0  0  0  0  0  0
   -5.5370   21.6840   -6.3220 O   0  0  0  0  0  0  0  0  0  0  0  0
   -5.9670   24.2330   -8.3630 O   0  0  0  0  0  0  0  0  0  0  0  0
  1  2  1  0
  2  3  1  0
  2  4  1  0
  2  5  1  0
  3  6  1  0
  4  7  1  0
  6  8  1  0
  6  9  1  0
  6 10  1  0
  7 11  1  0
 11 12  1  0
 13 12  1  1
 13 14  1  0
 13 15  1  0
 15 16  1  6
 14 17  1  0
 15 18  1  0
 17 18  1  0
 17 19  1  1
 18 20  1  6
M  CHG  1   9  -1
M  END
>  <%Rank>  (824) 
62.824427

>  <N_hits>  (824) 
2

>  <submitter_name>  (824) 
nan

>  <original SMILES>  (824) 
nan

>  <∆G_unbound>  (824) 
0.536656

>  <∆G_bound>  (824) 
-6.265969

>  <regarded>  (824) 
5LW0_1_B_β,5CB5_0_G_α

>  <ref_pdb>  (824) 
nan

>  <smiles>  (824) 
[O-][PH](O)(O)O[PH](O)(O)OCCCC1OC(O)C(O)C1O

>  <submitter_email>  (824) 
nan

>  <disregarded>  (824) 


>  <LE>  (824) 
-0.340131

>  <submitter_institution>  (824) 
nan

>  <ref_mols>  (824) 
5LW0_1_B,5CB5_0_G

>  <N_constrained_atoms>  (824) 
18.0

>  <ref_url>  (824) 
nan

>  <method>  (824) 
nan

>  <comRMSD>  (824) 
0.90669

>  <N_unconstrained_atoms>  (824) 
2.0

>  <∆∆G>  (824) 
-6.802625

>  <runtime>  (824) 
31.883801

>  <generation_date>  (824) 
nan

$$$$
mArh-x0128_0_A_α-mArh-5mqx_0_A_β
     RDKit          3D

 26 27  0  0  0  0  0  0  0  0999 V2000
   -6.5990   14.7700    2.4590 N   0  0  0  0  0  0  0  0  0  0  0  0
   -7.7620   15.1990    3.0470 C   0  0  0  0  0  0  0  0  0  0  0  0
   -8.7220   15.5100    2.3370 O   0  0  0  0  0  0  0  0  0  0  0  0
   -6.1160   14.7960    1.1330 C   0  0  0  0  0  0  0  0  0  0  0  0
   -7.7130   15.2310    4.4050 N   0  0  0  0  0  0  0  0  0  0  0  0
   -6.9430   14.5950    0.0310 C   0  0  0  0  0  0  0  0  0  0  0  0
   -4.7470   15.0400    0.9220 C   0  0  0  0  0  0  0  0  0  0  0  0
   -6.4210   14.6260   -1.2610 C   0  0  0  0  0  0  0  0  0  0  0  0
   -4.2250   15.0700   -0.3850 C   0  0  0  0  0  0  0  0  0  0  0  0
   -8.4760   16.0070    5.3140 C   0  0  0  0  0  0  0  0  0  0  0  0
   -5.0650   14.8560   -1.4920 C   0  0  0  0  0  0  0  0  0  0  0  0
   -9.1210   17.1620    4.8580 C   0  0  0  0  0  0  0  0  0  0  0  0
   -8.6340   15.6960    6.6580 C   0  0  0  0  0  0  0  0  0  0  0  0
   -9.8800   17.9810    5.6250 N   0  0  0  0  0  0  0  0  0  0  0  0
   -9.4100   16.5220    7.4780 C   0  0  0  0  0  0  0  0  0  0  0  0
   -4.5580   14.8590   -2.9270 C   0  0  0  0  0  0  0  0  0  0  0  0
  -10.0040   17.6400    6.9200 C   0  0  0  0  0  0  0  0  0  0  0  0
   -3.5190   15.8530   -3.0750 N   0  0  0  0  0  0  0  0  0  0  0  0
   -2.8390   16.0380   -4.6120 P   0  0  0  0  0  0  0  0  0  0  0  0
   -2.0050   17.4230   -4.6250 O   0  0  0  0  0  0  0  0  0  0  0  0
   -1.8570   14.8560   -4.9330 O   0  0  0  0  0  0  0  0  0  0  0  0
   -3.9190   16.0080   -5.7750 O   0  0  0  0  0  0  0  0  0  0  0  0
   -2.1000   18.8320   -5.4240 P   0  0  0  0  0  0  0  0  0  0  0  0
   -2.7900   18.3850   -6.8030 O   0  0  0  0  0  0  0  0  0  0  0  0
   -2.8320   19.9240   -4.6990 O   0  0  0  0  0  0  0  0  0  0  0  0
   -0.6440   19.1900   -5.8580 O   0  0  0  0  0  0  0  0  0  0  0  0
  1  2  1  0
  2  3  2  0
  1  4  1  0
  2  5  1  0
  4  6  2  0
  4  7  1  0
  6  8  1  0
  7  9  2  0
  5 10  1  0
  8 11  2  0
  9 11  1  0
 10 12  2  0
 10 13  1  0
 12 14  1  0
 13 15  2  0
 11 16  1  0
 14 17  2  0
 15 17  1  0
 16 18  1  0
 18 19  2  3
 19 20  1  0
 19 21  1  0
 19 22  1  0
 20 23  1  0
 23 24  1  0
 23 25  2  0
 23 26  1  0
M  END
>  <%Rank>  (825) 
62.900763

>  <N_hits>  (825) 
2

>  <submitter_name>  (825) 
nan

>  <original SMILES>  (825) 
nan

>  <∆G_unbound>  (825) 
0.358678

>  <∆G_bound>  (825) 
-8.045185

>  <regarded>  (825) 
mArh-x0128_0_A_α,mArh-5mqx_0_A_β

>  <ref_pdb>  (825) 
nan

>  <smiles>  (825) 
O=C(Nc1ccc(CN=P(O)(O)OP(=O)(O)O)cc1)Nc1cccnc1

>  <submitter_email>  (825) 
nan

>  <disregarded>  (825) 


>  <LE>  (825) 
-0.323226

>  <submitter_institution>  (825) 
nan

>  <ref_mols>  (825) 
mArh-x0128_0_A,mArh-5mqx_0_A

>  <N_constrained_atoms>  (825) 
25.0

>  <ref_url>  (825) 
nan

>  <method>  (825) 
nan

>  <comRMSD>  (825) 
1.058262

>  <N_unconstrained_atoms>  (825) 
1.0

>  <∆∆G>  (825) 
-8.403863

>  <runtime>  (825) 
42.280881

>  <generation_date>  (825) 
nan

$$$$
mArh-5cb5_E_0_E_α-5FUD_1_B_α
     RDKit          3D

 14 14  0  0  0  0  0  0  0  0999 V2000
   -2.4820   21.6520   -7.7470 C   0  0  2  0  0  0  0  0  0  0  0  0
   -1.8570   23.0230   -7.7360 C   0  0  0  0  0  0  0  0  0  0  0  0
   -1.2550   20.2990   -7.9620 S   0  0  0  0  0  0  0  0  0  0  0  0
   -3.6630   21.6800   -8.7330 C   0  0  1  0  0  0  0  0  0  0  0  0
   -1.7080   18.9660   -7.1710 O   0  0  0  0  0  0  0  0  0  0  0  0
    0.1800   20.8110   -7.5030 O   0  0  0  0  0  0  0  0  0  0  0  0
   -1.1680   19.8600   -9.4680 O   0  0  0  0  0  0  0  0  0  0  0  0
   -4.6510   20.7760   -8.2340 O   0  0  0  0  0  0  0  0  0  0  0  0
   -4.5040   22.9150   -9.1130 C   0  0  2  0  0  0  0  0  0  0  0  0
   -3.8920   24.1280   -9.3590 O   0  0  0  0  0  0  0  0  0  0  0  0
   -5.7430   21.5160   -7.6670 C   0  0  2  0  0  0  0  0  0  0  0  0
   -5.6690   22.9770   -8.1340 C   0  0  1  0  0  0  0  0  0  0  0  0
   -5.7080   21.4190   -6.2590 O   0  0  0  0  0  0  0  0  0  0  0  0
   -5.5210   23.8910   -7.0180 O   0  0  0  0  0  0  0  0  0  0  0  0
  1  2  1  6
  1  3  1  0
  1  4  1  0
  3  5  1  0
  3  6  1  0
  3  7  1  0
  4  8  1  1
  4  9  1  0
  9 10  1  1
  8 11  1  0
  9 12  1  0
 11 12  1  0
 11 13  1  1
 12 14  1  1
M  END
>  <%Rank>  (826) 
62.977099

>  <N_hits>  (826) 
2

>  <submitter_name>  (826) 
nan

>  <original SMILES>  (826) 
nan

>  <∆G_unbound>  (826) 
2.660647

>  <∆G_bound>  (826) 
-6.86681

>  <regarded>  (826) 
mArh-5cb5_E_0_E_α,5FUD_1_B_α

>  <ref_pdb>  (826) 
nan

>  <smiles>  (826) 
CC(C1OC(O)C(O)C1O)S(O)(O)O

>  <submitter_email>  (826) 
nan

>  <disregarded>  (826) 


>  <LE>  (826) 
-0.680533

>  <submitter_institution>  (826) 
nan

>  <ref_mols>  (826) 
mArh-5cb5_E_0_E,5FUD_1_B

>  <N_constrained_atoms>  (826) 
14.0

>  <ref_url>  (826) 
nan

>  <method>  (826) 
nan

>  <comRMSD>  (826) 
1.042293

>  <N_unconstrained_atoms>  (826) 
0.0

>  <∆∆G>  (826) 
-9.527457

>  <runtime>  (826) 
24.627237

>  <generation_date>  (826) 
nan

$$$$
mArh-5cms_P_15_P_β-mArh-5fud_A_0_A_α
     RDKit          3D

 17 17  0  0  0  0  0  0  0  0999 V2000
   -0.2340   21.2650   -7.1410 O   0  0  0  0  0  0  0  0  0  0  0  0
   -0.6680   20.0740   -8.0720 P   0  0  0  0  0  0  0  0  0  0  0  0
   -0.4220   19.4210   -6.6290 O   0  0  0  0  0  0  0  0  0  0  0  0
    0.3330   19.2160   -8.7150 O   0  0  0  0  0  0  0  0  0  0  0  0
   -1.3040   18.7320   -8.2760 O   0  0  0  0  0  0  0  0  0  0  0  0
   -2.0970   20.8880   -8.5300 C   0  0  0  0  0  0  0  0  0  0  0  0
   -1.4300   18.2410   -6.0530 P   0  0  0  0  0  0  0  0  0  0  0  0
   -2.2720   22.2400   -7.9030 C   0  0  0  0  0  0  0  0  0  0  0  0
   -0.4580   16.8610   -5.7910 O   0  0  0  0  0  0  0  0  0  0  0  0
   -2.6320   17.9070   -6.8810 O   0  0  0  0  0  0  0  0  0  0  0  0
   -1.9110   18.6760   -4.5040 O   0  0  0  0  0  0  0  0  0  0  0  0
   -3.6220   22.6420   -8.0160 N   0  0  0  0  0  0  0  0  0  0  0  0
   -4.2130   22.7030   -9.3100 C   0  0  0  0  0  0  0  0  0  0  0  0
   -4.0620   23.5600   -7.0740 C   0  0  0  0  0  0  0  0  0  0  0  0
   -5.7430   22.7270   -9.1560 C   0  0  0  0  0  0  0  0  0  0  0  0
   -5.5470   23.6350   -7.0710 C   0  0  0  0  0  0  0  0  0  0  0  0
   -6.1290   23.7260   -8.3100 O   0  0  0  0  0  0  0  0  0  0  0  0
  1  2  1  0
  2  3  1  0
  2  4  2  0
  2  5  1  0
  2  6  1  0
  3  7  1  0
  6  8  1  0
  7  9  1  0
  7 10  2  0
  7 11  1  0
  8 12  1  0
 12 13  1  0
 12 14  1  0
 13 15  1  0
 14 16  1  0
 15 17  1  0
 16 17  1  0
M  END
>  <%Rank>  (827) 
63.053435

>  <N_hits>  (827) 
2

>  <submitter_name>  (827) 
nan

>  <original SMILES>  (827) 
nan

>  <∆G_unbound>  (827) 
0.689576

>  <∆G_bound>  (827) 
-6.956522

>  <regarded>  (827) 
mArh-5cms_P_15_P_β,mArh-5fud_A_0_A_α

>  <ref_pdb>  (827) 
nan

>  <smiles>  (827) 
O=P(O)(O)O[PH](=O)(O)(O)CCN1CCOCC1

>  <submitter_email>  (827) 
nan

>  <disregarded>  (827) 


>  <LE>  (827) 
-0.44977

>  <submitter_institution>  (827) 
nan

>  <ref_mols>  (827) 
mArh-5cms_P_15_P,mArh-5fud_A_0_A

>  <N_constrained_atoms>  (827) 
17.0

>  <ref_url>  (827) 
nan

>  <method>  (827) 
nan

>  <comRMSD>  (827) 
0.999344

>  <N_unconstrained_atoms>  (827) 
0.0

>  <∆∆G>  (827) 
-7.646098

>  <runtime>  (827) 
35.995154

>  <generation_date>  (827) 
nan

$$$$
mArh-6woj_A_0_A_γ-mArh-x0962_3_A_α
     RDKit          3D

 17 18  0  0  0  0  0  0  0  0999 V2000
   -0.4920   12.2950   -4.2760 O   0  0  0  0  0  0  0  0  0  0  0  0
   -0.5360   13.7220   -4.2990 C   0  0  1  0  0  0  0  0  0  0  0  0
   -0.2400   14.3420   -2.9240 C   0  0  0  0  0  0  0  0  0  0  0  0
    0.6110   14.3320   -5.0810 C   0  0  2  0  0  0  0  0  0  0  0  0
    1.8790   13.9430   -4.5370 O   0  0  0  0  0  0  0  0  0  0  0  0
    0.2960   15.6550   -3.2080 O   0  0  0  0  0  0  0  0  0  0  0  0
    0.2340   15.7430   -4.6440 C   0  0  1  0  0  0  0  0  0  0  0  0
    0.9820   16.9360   -5.1910 C   0  0  0  0  0  0  0  0  0  0  0  0
    2.0490   12.5400   -4.3580 C   0  0  0  0  0  0  0  0  0  0  0  0
    2.7430   12.0150   -5.5910 C   0  0  0  0  0  0  0  0  0  0  0  0
    1.7820   11.6500   -6.6600 C   0  0  0  0  0  0  0  0  0  0  0  0
    0.9710   11.1410   -7.3780 C   0  0  0  0  0  0  0  0  0  0  0  0
   -0.0130   10.2830   -7.9020 C   0  0  0  0  0  0  0  0  0  0  0  0
    0.1700    9.2660   -8.8050 N   0  0  0  0  0  0  0  0  0  0  0  0
   -1.3440   10.2530   -7.5900 C   0  0  0  0  0  0  0  0  0  0  0  0
   -1.0450    8.6700   -8.9870 C   0  0  0  0  0  0  0  0  0  0  0  0
   -1.9800    9.2470   -8.2640 N   0  0  0  0  0  0  0  0  0  0  0  0
  2  1  1  1
  2  3  1  0
  2  4  1  0
  4  5  1  1
  3  6  1  0
  4  7  1  0
  6  7  1  0
  7  8  1  6
  5  9  1  0
  9 10  1  0
 10 11  1  0
 11 12  3  0
 12 13  1  0
 13 14  1  0
 13 15  2  0
 14 16  1  0
 15 17  1  0
 16 17  2  0
M  END
>  <%Rank>  (828) 
63.129771

>  <N_hits>  (828) 
2

>  <submitter_name>  (828) 
nan

>  <original SMILES>  (828) 
nan

>  <∆G_unbound>  (828) 
-0.03134

>  <∆G_bound>  (828) 
-4.068832

>  <regarded>  (828) 
mArh-6woj_A_0_A_γ,mArh-x0962_3_A_α

>  <ref_pdb>  (828) 
nan

>  <smiles>  (828) 
CC1OCC(O)C1OCCC#Cc1cnc[nH]1

>  <submitter_email>  (828) 
nan

>  <disregarded>  (828) 


>  <LE>  (828) 
-0.2375

>  <submitter_institution>  (828) 
nan

>  <ref_mols>  (828) 
mArh-6woj_A_0_A,mArh-x0962_3_A

>  <N_constrained_atoms>  (828) 
15.0

>  <ref_url>  (828) 
nan

>  <method>  (828) 
nan

>  <comRMSD>  (828) 
0.780279

>  <N_unconstrained_atoms>  (828) 
2.0

>  <∆∆G>  (828) 
-4.037492

>  <runtime>  (828) 
47.904235

>  <generation_date>  (828) 
nan

$$$$
5CMS_0_P_β-mArh-5cb5_O_0_O_α
     RDKit          3D

 17 17  0  0  0  0  0  0  0  0999 V2000
   -1.6120   21.2830   -8.9220 O   0  0  0  0  0  0  0  0  0  0  0  0
   -0.8530   20.1840   -7.8710 P   0  0  0  0  0  0  0  0  0  0  0  0
   -1.7660   19.4650   -6.7260 O   0  0  0  0  0  0  0  0  0  0  0  0
   -2.9940   21.6170   -8.7610 C   0  0  1  0  0  0  0  0  0  0  0  0
   -0.6170   21.3640   -6.9810 O   0  0  0  0  0  0  0  0  0  0  0  0
   -0.9530   18.9560   -8.7630 O   0  0  0  0  0  0  0  0  0  0  0  0
   -3.6080   21.1170   -7.6540 O   0  0  0  0  0  0  0  0  0  0  0  0
   -3.2520   23.1540   -8.6020 C   0  0  1  0  0  0  0  0  0  0  0  0
   -1.4490   18.1110   -6.0790 P   0  0  0  0  0  0  0  0  0  0  0  0
   -3.9010   23.5620   -9.7610 O   0  0  0  0  0  0  0  0  0  0  0  0
   -4.7590   21.8330   -7.4650 C   0  0  2  0  0  0  0  0  0  0  0  0
   -4.2960   23.2410   -7.4800 C   0  0  2  0  0  0  0  0  0  0  0  0
   -1.0100   16.7400   -5.5450 O   0  0  0  0  0  0  0  0  0  0  0  0
   -2.7680   17.4640   -6.8020 O   0  0  0  0  0  0  0  0  0  0  0  0
   -1.6390   18.7310   -4.5760 O   0  0  0  0  0  0  0  0  0  0  0  0
   -5.5140   21.5550   -6.3290 O   0  0  0  0  0  0  0  0  0  0  0  0
   -5.3060   24.0930   -7.9530 O   0  0  0  0  0  0  0  0  0  0  0  0
  1  2  1  0
  2  3  1  0
  4  1  1  1
  2  5  1  0
  2  6  1  0
  4  7  1  0
  4  8  1  0
  3  9  1  0
  8 10  1  6
  7 11  1  0
  8 12  1  0
 11 12  1  0
  9 13  1  0
  9 14  1  0
  9 15  1  0
 11 16  1  1
 12 17  1  6
M  CHG  2   5  -1  14  -1
M  END
>  <%Rank>  (829) 
63.206107

>  <N_hits>  (829) 
2

>  <submitter_name>  (829) 
nan

>  <original SMILES>  (829) 
nan

>  <∆G_unbound>  (829) 
0.972863

>  <∆G_bound>  (829) 
-6.05341

>  <regarded>  (829) 
5CMS_0_P_β,mArh-5cb5_O_0_O_α

>  <ref_pdb>  (829) 
nan

>  <smiles>  (829) 
[O-][PH](O)(O)O[PH]([O-])(O)OC1OC(O)C(O)C1O

>  <submitter_email>  (829) 
nan

>  <disregarded>  (829) 


>  <LE>  (829) 
-0.41331

>  <submitter_institution>  (829) 
nan

>  <ref_mols>  (829) 
5CMS_0_P,mArh-5cb5_O_0_O

>  <N_constrained_atoms>  (829) 
17.0

>  <ref_url>  (829) 
nan

>  <method>  (829) 
nan

>  <comRMSD>  (829) 
0.981665

>  <N_unconstrained_atoms>  (829) 
0.0

>  <∆∆G>  (829) 
-7.026273

>  <runtime>  (829) 
34.588942

>  <generation_date>  (829) 
nan

$$$$
mArh-EU0481_0_A_α-5L9K_0_B_β
     RDKit          3D

 24 25  0  0  0  0  0  0  0  0999 V2000
   -8.0550   13.3750    3.8820 N   0  0  0  0  0  0  0  0  0  0  0  0
   -8.2390   14.6530    3.2410 C   0  0  0  0  0  0  0  0  0  0  0  0
   -7.4910   14.7230    1.9380 C   0  0  0  0  0  0  0  0  0  0  0  0
   -8.1590   14.7000    0.7360 C   0  0  0  0  0  0  0  0  0  0  0  0
   -6.1060   14.8210    1.8850 C   0  0  0  0  0  0  0  0  0  0  0  0
   -7.4800   14.7790   -0.4200 N   0  0  0  0  0  0  0  0  0  0  0  0
   -5.4240   14.9030    0.6800 C   0  0  0  0  0  0  0  0  0  0  0  0
   -6.1460   14.8850   -0.4910 C   0  0  0  0  0  0  0  0  0  0  0  0
   -4.0470   15.0090    0.5700 C   0  0  0  0  0  0  0  0  0  0  0  0
   -3.4180   15.0990   -0.6650 C   0  0  0  0  0  0  0  0  0  0  0  0
   -5.5170   14.9770   -1.7100 C   0  0  0  0  0  0  0  0  0  0  0  0
   -4.1630   15.0870   -1.8400 C   0  0  0  0  0  0  0  0  0  0  0  0
   -3.6300   15.1850   -3.2320 C   0  0  0  0  0  0  0  0  0  0  0  0
   -2.1380   15.0350   -3.2790 C   0  0  0  0  0  0  0  0  0  0  0  0
   -1.5090   15.8690   -4.3560 C   0  0  0  0  0  0  0  0  0  0  0  0
   -2.3480   17.0030   -4.7140 O   0  0  0  0  0  0  0  0  0  0  0  0
   -1.6170   17.9320   -5.6910 P   0  0  0  0  0  0  0  0  0  0  0  0
   -0.7380   18.9140   -6.5130 O   0  0  0  0  0  0  0  0  0  0  0  0
   -0.4060   16.8730   -5.7420 O   0  0  0  0  0  0  0  0  0  0  0  0
   -2.7860   17.7750   -6.8360 O   0  0  0  0  0  0  0  0  0  0  0  0
   -1.0290   19.6000   -7.8350 P   0  0  0  0  0  0  0  0  0  0  0  0
   -1.4200   20.5090   -8.9980 O   0  0  0  0  0  0  0  0  0  0  0  0
   -2.4900   19.8560   -7.2410 O   0  0  0  0  0  0  0  0  0  0  0  0
    0.2340   20.6550   -7.5210 O   0  0  0  0  0  0  0  0  0  0  0  0
  1  2  1  0
  2  3  1  0
  3  4  2  0
  3  5  1  0
  4  6  1  0
  5  7  2  0
  6  8  2  0
  7  8  1  0
  7  9  1  0
  9 10  2  0
  8 11  1  0
 10 12  1  0
 11 12  2  0
 12 13  1  0
 13 14  1  0
 14 15  1  0
 15 16  1  0
 16 17  1  0
 17 18  1  0
 17 19  1  0
 17 20  1  0
 18 21  1  0
 21 22  1  0
 21 23  1  0
 21 24  1  0
M  CHG  1  23  -1
M  END
>  <%Rank>  (830) 
63.282443

>  <N_hits>  (830) 
2

>  <submitter_name>  (830) 
nan

>  <original SMILES>  (830) 
nan

>  <∆G_unbound>  (830) 
0.358946

>  <∆G_bound>  (830) 
-8.659529

>  <regarded>  (830) 
mArh-EU0481_0_A_α,5L9K_0_B_β

>  <ref_pdb>  (830) 
nan

>  <smiles>  (830) 
NCc1cnc2cc(CCCO[PH](O)(O)O[PH]([O-])(O)O)ccc2c1

>  <submitter_email>  (830) 
nan

>  <disregarded>  (830) 


>  <LE>  (830) 
-0.37577

>  <submitter_institution>  (830) 
nan

>  <ref_mols>  (830) 
mArh-EU0481_0_A,5L9K_0_B

>  <N_constrained_atoms>  (830) 
21.0

>  <ref_url>  (830) 
nan

>  <method>  (830) 
nan

>  <comRMSD>  (830) 
0.972642

>  <N_unconstrained_atoms>  (830) 
3.0

>  <∆∆G>  (830) 
-9.018475

>  <runtime>  (830) 
50.60878

>  <generation_date>  (830) 
nan

$$$$
5L9K_0_A_α-mArh-x0766_0_A_α
     RDKit          3D

 29 31  0  0  0  0  0  0  0  0999 V2000
   -2.3960   21.7410   -8.9070 C   0  0  0  0  0  0  0  0  0  0  0  0
   -3.0550   22.4860   -7.8030 C   0  0  2  0  0  0  0  0  0  0  0  0
   -3.8830   21.5470   -7.1990 O   0  0  0  0  0  0  0  0  0  0  0  0
   -3.9100   23.7250   -8.0490 C   0  0  1  0  0  0  0  0  0  0  0  0
   -4.6820   23.8230   -9.2600 O   0  0  0  0  0  0  0  0  0  0  0  0
   -4.8030   22.2360   -6.3850 C   0  0  1  0  0  0  0  0  0  0  0  0
   -4.8730   23.6920   -6.8640 C   0  0  2  0  0  0  0  0  0  0  0  0
   -5.9010   21.4420   -6.6510 O   0  0  0  0  0  0  0  0  0  0  0  0
   -6.1920   24.0750   -7.2080 O   0  0  0  0  0  0  0  0  0  0  0  0
   -5.0910   20.3930   -7.1970 C   0  0  0  0  0  0  0  0  0  0  0  0
   -3.6910   20.4050   -6.4820 C   0  0  0  0  0  0  0  0  0  0  0  0
   -2.7510   19.1860   -6.6830 C   0  0  0  0  0  0  0  0  0  0  0  0
   -1.7340   18.9060   -5.5620 C   0  0  0  0  0  0  0  0  0  0  0  0
   -1.3770   17.4230   -5.3310 C   0  0  0  0  0  0  0  0  0  0  0  0
   -2.5950   16.5100   -5.0640 C   0  0  0  0  0  0  0  0  0  0  0  0
   -2.3110   15.0680   -4.6030 C   0  0  0  0  0  0  0  0  0  0  0  0
   -2.2510   14.8970   -3.0890 C   0  0  0  0  0  0  0  0  0  0  0  0
   -1.1190   14.7420   -2.2840 C   0  0  0  0  0  0  0  0  0  0  0  0
   -3.6980   14.8850   -2.1440 S   0  0  0  0  0  0  0  0  0  0  0  0
    0.3180   14.7270   -2.7760 C   0  0  1  0  0  0  0  0  0  0  0  0
   -1.4880   14.6120   -0.9020 C   0  0  0  0  0  0  0  0  0  0  0  0
   -2.8400   14.6730   -0.6870 C   0  0  0  0  0  0  0  0  0  0  0  0
    0.9490   13.3890   -3.2240 C   0  0  1  0  0  0  0  0  0  0  0  0
    0.5570   15.6740   -3.9460 C   0  0  0  0  0  0  0  0  0  0  0  0
    0.4410   12.2220   -2.4300 C   0  0  0  0  0  0  0  0  0  0  0  0
    0.9750   13.4460   -4.7390 C   0  0  0  0  0  0  0  0  0  0  0  0
    1.4150   14.8880   -4.9050 C   0  0  0  0  0  0  0  0  0  0  0  0
    0.4570   12.3000   -1.2170 O   0  0  0  0  0  0  0  0  0  0  0  0
   -0.0180   11.1360   -3.0780 O   0  0  0  0  0  0  0  0  0  0  0  0
  2  1  1  6
  2  3  1  0
  2  4  1  0
  4  5  1  6
  3  6  1  0
  4  7  1  0
  6  7  1  0
  6  8  1  6
  7  9  1  6
  8 10  1  0
 10 11  1  0
 11 12  1  0
 12 13  1  0
 13 14  1  0
 14 15  1  0
 15 16  1  0
 16 17  1  0
 17 18  2  0
 17 19  1  0
 20 18  1  6
 18 21  1  0
 19 22  1  0
 21 22  2  0
 20 23  1  0
 20 24  1  0
 23 25  1  6
 23 26  1  0
 24 27  1  0
 26 27  1  0
 25 28  2  0
 25 29  1  0
M  END
>  <%Rank>  (831) 
63.358779

>  <N_hits>  (831) 
2

>  <submitter_name>  (831) 
nan

>  <original SMILES>  (831) 
nan

>  <∆G_unbound>  (831) 
0.790142

>  <∆G_bound>  (831) 
-10.530041

>  <regarded>  (831) 
5L9K_0_A_α,mArh-x0766_0_A_α

>  <ref_pdb>  (831) 
nan

>  <smiles>  (831) 
CC1OC(OCCCCCCCc2sccc2C2CCCC2C(=O)O)C(O)C1O

>  <submitter_email>  (831) 
nan

>  <disregarded>  (831) 


>  <LE>  (831) 
-0.390351

>  <submitter_institution>  (831) 
nan

>  <ref_mols>  (831) 
5L9K_0_A,mArh-x0766_0_A

>  <N_constrained_atoms>  (831) 
22.0

>  <ref_url>  (831) 
nan

>  <method>  (831) 
nan

>  <comRMSD>  (831) 
0.914083

>  <N_unconstrained_atoms>  (831) 
7.0

>  <∆∆G>  (831) 
-11.320183

>  <runtime>  (831) 
45.834343

>  <generation_date>  (831) 
nan

$$$$
5FUD_1_B_α-5CB5_0_R_δ
     RDKit          3D

 27 29  0  0  0  0  0  0  0  0999 V2000
   -1.1990   20.3410   -6.0990 O   0  0  0  0  0  0  0  0  0  0  0  0
   -0.7690   20.2270   -7.6330 S   0  0  0  0  0  0  0  0  0  0  0  0
    0.5640   21.0450   -7.9670 O   0  0  0  0  0  0  0  0  0  0  0  0
   -0.6860   18.6790   -7.9740 O   0  0  0  0  0  0  0  0  0  0  0  0
   -2.1430   20.9760   -8.4110 C   0  0  0  0  0  0  0  0  0  0  0  0
   -2.3900   22.3790   -7.9910 C   0  0  0  0  0  0  0  0  0  0  0  0
   -0.6270   18.0240   -6.6940 C   0  0  0  0  0  0  0  0  0  0  0  0
   -2.0170   17.8360   -6.0770 C   0  0  0  0  0  0  0  0  0  0  0  0
   -3.8180   22.6160   -7.9480 N   0  0  0  0  0  0  0  0  0  0  0  0
   -2.2250   16.5170   -5.3050 C   0  0  0  0  0  0  0  0  0  0  0  0
   -4.4050   22.8580   -9.2820 C   0  0  0  0  0  0  0  0  0  0  0  0
   -4.0340   23.7910   -7.1340 C   0  0  0  0  0  0  0  0  0  0  0  0
   -1.0130   16.0480   -4.4870 C   0  0  0  0  0  0  0  0  0  0  0  0
   -5.9210   23.0310   -9.1440 C   0  0  0  0  0  0  0  0  0  0  0  0
   -5.5170   23.9370   -6.9780 C   0  0  0  0  0  0  0  0  0  0  0  0
   -1.3140   16.0540   -2.9750 C   0  0  0  0  0  0  0  0  0  0  0  0
   -6.2170   24.0890   -8.2260 O   0  0  0  0  0  0  0  0  0  0  0  0
   -1.7790   14.7380   -2.5160 N   0  0  0  0  0  0  0  0  0  0  0  0
   -1.5420   14.4400   -1.0890 C   0  0  2  0  0  0  0  0  0  0  0  0
   -3.2430   14.6560   -2.6250 C   0  0  0  0  0  0  0  0  0  0  0  0
   -2.8990   14.5460   -0.3740 C   0  0  2  0  0  0  0  0  0  0  0  0
   -3.8040   15.1110   -1.3750 N   0  0  0  0  0  0  0  0  0  0  0  0
   -0.5060   15.2230   -0.4390 N   0  0  0  0  0  0  0  0  0  0  0  0
   -0.3710   14.7460    0.9110 C   0  0  0  0  0  0  0  0  0  0  0  0
   -2.7040   15.4450    0.8410 C   0  0  1  0  0  0  0  0  0  0  0  0
   -3.8810   15.5340    1.7030 N   0  0  0  0  0  0  0  0  0  0  0  0
   -1.5830   15.0460    1.6600 N   0  0  0  0  0  0  0  0  0  0  0  0
  2  1  1  0
  2  3  1  0
  2  4  1  0
  2  5  1  0
  5  6  1  0
  4  7  1  0
  7  8  1  0
  6  9  1  0
  8 10  1  0
  9 11  1  0
  9 12  1  0
 10 13  1  0
 11 14  1  0
 12 15  1  0
 13 16  1  0
 14 17  1  0
 15 17  1  0
 16 18  1  0
 18 19  1  0
 18 20  1  0
 19 21  1  0
 20 22  1  0
 21 22  1  6
 19 23  1  1
 23 24  1  0
 21 25  1  0
 25 26  1  1
 24 27  1  0
 25 27  1  0
M  END
>  <%Rank>  (832) 
63.435115

>  <N_hits>  (832) 
2

>  <submitter_name>  (832) 
nan

>  <original SMILES>  (832) 
nan

>  <∆G_unbound>  (832) 
3.100379

>  <∆G_bound>  (832) 
-10.026198

>  <regarded>  (832) 
5FUD_1_B_α,5CB5_0_R_δ

>  <ref_pdb>  (832) 
nan

>  <smiles>  (832) 
NC1NCNC2C1NCN2CCCCCOS(O)(O)CCN1CCOCC1

>  <submitter_email>  (832) 
nan

>  <disregarded>  (832) 


>  <LE>  (832) 
-0.486169

>  <submitter_institution>  (832) 
nan

>  <ref_mols>  (832) 
5FUD_1_B,5CB5_0_R

>  <N_constrained_atoms>  (832) 
22.0

>  <ref_url>  (832) 
nan

>  <method>  (832) 
nan

>  <comRMSD>  (832) 
1.011351

>  <N_unconstrained_atoms>  (832) 
5.0

>  <∆∆G>  (832) 
-13.126576

>  <runtime>  (832) 
38.331407

>  <generation_date>  (832) 
nan

$$$$
3VFQ_0_A_γ-5CMS_0_G_α
     RDKit          3D

 18 18  0  0  0  0  0  0  0  0999 V2000
   -5.4300   12.4560   -2.0260 O   0  0  0  0  0  0  0  0  0  0  0  0
   -5.1420   13.7950   -2.2360 C   0  0  1  0  0  0  0  0  0  0  0  0
   -3.9460   14.2920   -1.4140 C   0  0  0  0  0  0  0  0  0  0  0  0
   -4.7100   14.0820   -3.6520 C   0  0  2  0  0  0  0  0  0  0  0  0
   -3.9980   12.9980   -4.1830 O   0  0  0  0  0  0  0  0  0  0  0  0
   -2.9900   14.6730   -2.3590 O   0  0  0  0  0  0  0  0  0  0  0  0
   -3.7300   15.1650   -3.3890 C   0  0  1  0  0  0  0  0  0  0  0  0
   -2.9530   15.4570   -4.6930 C   0  0  0  0  0  0  0  0  0  0  0  0
   -1.7120   16.2680   -4.4300 C   0  0  0  0  0  0  0  0  0  0  0  0
   -1.9570   17.6680   -4.5820 O   0  0  0  0  0  0  0  0  0  0  0  0
   -1.4930   17.7530   -6.1530 P   0  0  0  0  0  0  0  0  0  0  0  0
    0.0290   17.3440   -6.4670 O   0  0  0  0  0  0  0  0  0  0  0  0
   -2.6260   17.8890   -7.2600 O   0  0  0  0  0  0  0  0  0  0  0  0
   -1.2230   19.2160   -6.3780 O   0  0  0  0  0  0  0  0  0  0  0  0
   -0.8550   19.8920   -7.8210 P   0  0  0  0  0  0  0  0  0  0  0  0
   -1.6130   21.1810   -7.4920 O   0  0  0  0  0  0  0  0  0  0  0  0
   -0.1050   18.6560   -8.3440 O   0  0  0  0  0  0  0  0  0  0  0  0
    0.5950   20.7170   -7.9240 O   0  0  0  0  0  0  0  0  0  0  0  0
  2  1  1  6
  2  3  1  0
  2  4  1  0
  4  5  1  1
  3  6  1  0
  4  7  1  0
  6  7  1  0
  7  8  1  6
  8  9  1  0
  9 10  1  0
 10 11  1  0
 11 12  1  0
 11 13  1  0
 11 14  1  0
 14 15  1  0
 15 16  1  0
 15 17  1  0
 15 18  1  0
M  CHG  1  17  -1
M  END
>  <%Rank>  (833) 
63.51145

>  <N_hits>  (833) 
2

>  <submitter_name>  (833) 
nan

>  <original SMILES>  (833) 
nan

>  <∆G_unbound>  (833) 
1.998668

>  <∆G_bound>  (833) 
-6.190251

>  <regarded>  (833) 
3VFQ_0_A_γ,5CMS_0_G_α

>  <ref_pdb>  (833) 
nan

>  <smiles>  (833) 
[O-][PH](O)(O)O[PH](O)(O)OCCC1OCC(O)C1O

>  <submitter_email>  (833) 
nan

>  <disregarded>  (833) 


>  <LE>  (833) 
-0.45494

>  <submitter_institution>  (833) 
nan

>  <ref_mols>  (833) 
3VFQ_0_A,5CMS_0_G

>  <N_constrained_atoms>  (833) 
17.0

>  <ref_url>  (833) 
nan

>  <method>  (833) 
nan

>  <comRMSD>  (833) 
0.984148

>  <N_unconstrained_atoms>  (833) 
1.0

>  <∆∆G>  (833) 
-8.18892

>  <runtime>  (833) 
34.444433

>  <generation_date>  (833) 
nan

$$$$
5CMS_0_P_β-5CB5_0_G_α
     RDKit          3D

 17 17  0  0  0  0  0  0  0  0999 V2000
   -1.7200   21.2310   -8.9330 O   0  0  0  0  0  0  0  0  0  0  0  0
   -0.8760   20.1920   -7.8790 P   0  0  0  0  0  0  0  0  0  0  0  0
   -1.7320   19.4880   -6.6850 O   0  0  0  0  0  0  0  0  0  0  0  0
   -3.0860   21.5830   -8.6700 C   0  0  1  0  0  0  0  0  0  0  0  0
   -0.6200   21.4010   -7.0260 O   0  0  0  0  0  0  0  0  0  0  0  0
   -0.9780   18.9370   -8.7330 O   0  0  0  0  0  0  0  0  0  0  0  0
   -3.5960   21.1390   -7.4790 O   0  0  0  0  0  0  0  0  0  0  0  0
   -3.2900   23.1280   -8.6140 C   0  0  1  0  0  0  0  0  0  0  0  0
   -1.4410   18.1130   -6.0740 P   0  0  0  0  0  0  0  0  0  0  0  0
   -3.8730   23.4750   -9.8250 O   0  0  0  0  0  0  0  0  0  0  0  0
   -4.5180   21.9970   -6.9160 C   0  0  1  0  0  0  0  0  0  0  0  0
   -4.3660   23.3580   -7.5480 C   0  0  2  0  0  0  0  0  0  0  0  0
   -1.0240   16.7220   -5.5750 O   0  0  0  0  0  0  0  0  0  0  0  0
   -2.7570   17.4970   -6.8180 O   0  0  0  0  0  0  0  0  0  0  0  0
   -1.6330   18.7010   -4.5560 O   0  0  0  0  0  0  0  0  0  0  0  0
   -5.8370   21.5530   -6.8540 O   0  0  0  0  0  0  0  0  0  0  0  0
   -5.4780   23.8150   -8.2890 O   0  0  0  0  0  0  0  0  0  0  0  0
  1  2  1  0
  2  3  1  0
  4  1  1  1
  2  5  1  0
  2  6  1  0
  4  7  1  0
  4  8  1  0
  3  9  1  0
  8 10  1  6
  7 11  1  0
  8 12  1  0
 11 12  1  0
  9 13  1  0
  9 14  1  0
  9 15  1  0
 11 16  1  6
 12 17  1  6
M  CHG  2   5  -1  14  -1
M  END
>  <%Rank>  (834) 
63.587786

>  <N_hits>  (834) 
2

>  <submitter_name>  (834) 
nan

>  <original SMILES>  (834) 
nan

>  <∆G_unbound>  (834) 
0.972863

>  <∆G_bound>  (834) 
-6.494207

>  <regarded>  (834) 
5CMS_0_P_β,5CB5_0_G_α

>  <ref_pdb>  (834) 
nan

>  <smiles>  (834) 
[O-][PH](O)(O)O[PH]([O-])(O)OC1OC(O)C(O)C1O

>  <submitter_email>  (834) 
nan

>  <disregarded>  (834) 


>  <LE>  (834) 
-0.439239

>  <submitter_institution>  (834) 
nan

>  <ref_mols>  (834) 
5CMS_0_P,5CB5_0_G

>  <N_constrained_atoms>  (834) 
17.0

>  <ref_url>  (834) 
nan

>  <method>  (834) 
nan

>  <comRMSD>  (834) 
1.006706

>  <N_unconstrained_atoms>  (834) 
0.0

>  <∆∆G>  (834) 
-7.467071

>  <runtime>  (834) 
29.384456

>  <generation_date>  (834) 
nan

$$$$
5CMS_0_F_β-mArh-x0228_0_B_α
     RDKit          3D

 24 24  0  0  0  0  0  0  0  0999 V2000
   -1.8860   20.8450   -8.4850 O   0  0  0  0  0  0  0  0  0  0  0  0
   -0.4650   20.1210   -8.0750 P   0  0  0  0  0  0  0  0  0  0  0  0
   -0.9790   19.7600   -6.6770 O   0  0  0  0  0  0  0  0  0  0  0  0
    0.7640   21.0270   -7.5610 O   0  0  0  0  0  0  0  0  0  0  0  0
   -0.1990   18.5590   -8.5340 O   0  0  0  0  0  0  0  0  0  0  0  0
   -1.9710   18.6850   -6.2150 P   0  0  0  0  0  0  0  0  0  0  0  0
   -1.1200   17.5340   -6.8330 O   0  0  0  0  0  0  0  0  0  0  0  0
   -3.1840   19.4720   -7.0230 O   0  0  0  0  0  0  0  0  0  0  0  0
   -1.7780   19.0080   -4.6170 O   0  0  0  0  0  0  0  0  0  0  0  0
   -3.3560   20.6970   -6.3510 C   0  0  0  0  0  0  0  0  0  0  0  0
   -3.8500   21.7480   -7.3180 C   0  0  0  0  0  0  0  0  0  0  0  0
   -5.3090   22.0560   -7.1910 C   0  0  0  0  0  0  0  0  0  0  0  0
   -6.0120   22.0010   -8.5140 C   0  0  0  0  0  0  0  0  0  0  0  0
   -6.3090   23.3150   -9.1480 C   0  0  0  0  0  0  0  0  0  0  0  0
   -6.8120   23.1410  -10.5730 C   0  0  0  0  0  0  0  0  0  0  0  0
   -7.0080   24.5040  -11.2070 C   0  0  0  0  0  0  0  0  0  0  0  0
   -7.5070   24.4800  -12.5610 N   0  0  0  0  0  0  0  0  0  0  0  0
   -7.5280   25.4740  -13.3510 C   0  0  0  0  0  0  0  0  0  0  0  0
   -8.0320   25.3760  -14.6710 N   0  0  0  0  0  0  0  0  0  0  0  0
   -9.3910   25.2600  -14.9650 N   0  0  0  0  0  0  0  0  0  0  0  0
   -9.9590   24.3400  -15.7580 C   0  0  0  0  0  0  0  0  0  0  0  0
  -10.3910   26.0420  -14.5210 C   0  0  0  0  0  0  0  0  0  0  0  0
  -11.3030   24.5650  -15.7920 N   0  0  0  0  0  0  0  0  0  0  0  0
  -11.5650   25.6080  -15.0320 N   0  0  0  0  0  0  0  0  0  0  0  0
  1  2  1  0
  2  3  1  0
  2  4  1  0
  2  5  1  0
  3  6  1  0
  6  7  1  0
  6  8  1  0
  6  9  1  0
  8 10  1  0
 10 11  1  0
 11 12  1  0
 12 13  1  0
 13 14  1  0
 14 15  1  0
 15 16  1  0
 16 17  1  0
 17 18  2  3
 18 19  1  0
 19 20  1  0
 20 21  1  0
 20 22  1  0
 21 23  2  0
 22 24  2  0
 23 24  1  0
M  CHG  1   4  -1
M  END
>  <%Rank>  (835) 
63.664122

>  <N_hits>  (835) 
2

>  <submitter_name>  (835) 
nan

>  <original SMILES>  (835) 
nan

>  <∆G_unbound>  (835) 
1.333405

>  <∆G_bound>  (835) 
-7.773361

>  <regarded>  (835) 
5CMS_0_F_β,mArh-x0228_0_B_α

>  <ref_pdb>  (835) 
nan

>  <smiles>  (835) 
[O-][PH](O)(O)O[PH](O)(O)OCCCCCCCN=CNn1cnnc1

>  <submitter_email>  (835) 
nan

>  <disregarded>  (835) 


>  <LE>  (835) 
-0.379449

>  <submitter_institution>  (835) 
nan

>  <ref_mols>  (835) 
5CMS_0_F,mArh-x0228_0_B

>  <N_constrained_atoms>  (835) 
17.0

>  <ref_url>  (835) 
nan

>  <method>  (835) 
nan

>  <comRMSD>  (835) 
0.771981

>  <N_unconstrained_atoms>  (835) 
7.0

>  <∆∆G>  (835) 
-9.106766

>  <runtime>  (835) 
54.572893

>  <generation_date>  (835) 
nan

$$$$
mArh-5lw0_B_1_B_β-mArh-4iqy_A_0_A_γ
     RDKit          3D

 16 16  0  0  0  0  0  0  0  0999 V2000
   -1.5890   20.2320   -8.4930 O   0  0  0  0  0  0  0  0  0  0  0  0
   -0.4450   19.4830   -7.6990 P   0  0  0  0  0  0  0  0  0  0  0  0
   -1.1390   19.0320   -6.3320 O   0  0  0  0  0  0  0  0  0  0  0  0
    0.7750   20.2930   -7.5990 O   0  0  0  0  0  0  0  0  0  0  0  0
   -0.2340   18.2370   -8.6490 O   0  0  0  0  0  0  0  0  0  0  0  0
   -1.6710   17.5880   -5.9650 P   0  0  2  0  0  0  0  0  0  0  0  0
   -0.4020   16.6710   -5.6060 O   0  0  0  0  0  0  0  0  0  0  0  0
   -2.7200   17.0230   -6.8380 O   0  0  0  0  0  0  0  0  0  0  0  0
   -2.2630   17.7580   -4.5170 O   0  0  0  0  0  0  0  0  0  0  0  0
   -0.6340   15.6670   -4.6420 C   0  0  2  0  0  0  0  0  0  0  0  0
   -0.1070   15.9110   -3.3350 O   0  0  0  0  0  0  0  0  0  0  0  0
   -0.1110   14.2640   -4.9340 C   0  0  1  0  0  0  0  0  0  0  0  0
    1.3100   14.0660   -4.7580 O   0  0  0  0  0  0  0  0  0  0  0  0
   -0.3400   14.6560   -2.6510 C   0  0  0  0  0  0  0  0  0  0  0  0
   -0.7910   13.6620   -3.7320 C   0  0  2  0  0  0  0  0  0  0  0  0
   -0.3890   12.3310   -3.5030 O   0  0  0  0  0  0  0  0  0  0  0  0
  1  2  1  0
  2  3  1  0
  2  4  2  0
  2  5  1  0
  3  6  1  0
  6  7  1  0
  6  8  2  0
  6  9  1  1
 10  7  1  6
 10 11  1  0
 10 12  1  0
 12 13  1  1
 11 14  1  0
 12 15  1  0
 14 15  1  0
 15 16  1  1
M  END
>  <%Rank>  (836) 
63.740458

>  <N_hits>  (836) 
2

>  <submitter_name>  (836) 
nan

>  <original SMILES>  (836) 
nan

>  <∆G_unbound>  (836) 
1.157846

>  <∆G_bound>  (836) 
-6.354878

>  <regarded>  (836) 
mArh-5lw0_B_1_B_β,mArh-4iqy_A_0_A_γ

>  <ref_pdb>  (836) 
nan

>  <smiles>  (836) 
O=P(O)(O)OP(=O)(O)OC1OCC(O)C1O

>  <submitter_email>  (836) 
nan

>  <disregarded>  (836) 


>  <LE>  (836) 
-0.469545

>  <submitter_institution>  (836) 
nan

>  <ref_mols>  (836) 
mArh-5lw0_B_1_B,mArh-4iqy_A_0_A

>  <N_constrained_atoms>  (836) 
16.0

>  <ref_url>  (836) 
nan

>  <method>  (836) 
nan

>  <comRMSD>  (836) 
1.001445

>  <N_unconstrained_atoms>  (836) 
0.0

>  <∆∆G>  (836) 
-7.512724

>  <runtime>  (836) 
29.316792

>  <generation_date>  (836) 
nan

$$$$
5L9K_0_A_α-mArh-3gqe_A_0_A_α
     RDKit          3D

 19 19  0  0  0  0  0  0  0  0999 V2000
   -3.6970   20.9150   -7.3490 C   0  0  1  0  0  0  0  0  0  0  0  0
   -2.6460   21.1800   -6.2930 C   0  0  0  0  0  0  0  0  0  0  0  0
   -1.7080   20.0400   -6.1180 N   0  0  0  0  0  0  0  0  0  0  0  0
   -5.0000   20.8850   -6.7700 O   0  0  0  0  0  0  0  0  0  0  0  0
   -3.8090   21.9020   -8.5130 C   0  0  1  0  0  0  0  0  0  0  0  0
   -5.1480   21.6140   -8.9440 O   0  0  0  0  0  0  0  0  0  0  0  0
   -3.9850   23.3650   -8.1380 C   0  0  1  0  0  0  0  0  0  0  0  0
   -4.6090   24.0750   -9.2290 O   0  0  0  0  0  0  0  0  0  0  0  0
   -2.3480   18.7220   -6.3660 C   0  0  0  0  0  0  0  0  0  0  0  0
   -0.5990   20.2070   -7.0440 C   0  0  0  0  0  0  0  0  0  0  0  0
   -5.9550   22.2300   -7.9330 C   0  0  2  0  0  0  0  0  0  0  0  0
   -5.0260   23.1180   -7.0810 C   0  0  2  0  0  0  0  0  0  0  0  0
   -6.6170   21.2210   -7.1870 O   0  0  0  0  0  0  0  0  0  0  0  0
   -5.6390   24.2900   -6.5540 O   0  0  0  0  0  0  0  0  0  0  0  0
   -2.2300   17.7780   -5.1950 C   0  0  0  0  0  0  0  0  0  0  0  0
   -0.9380   19.5430   -8.3370 C   0  0  0  0  0  0  0  0  0  0  0  0
    0.0330   18.7000   -8.9090 O   0  0  0  0  0  0  0  0  0  0  0  0
   -2.8810   16.7650   -4.9780 O   0  0  0  0  0  0  0  0  0  0  0  0
   -1.2930   18.1960   -4.3420 O   0  0  0  0  0  0  0  0  0  0  0  0
  1  2  1  0
  2  3  1  0
  1  4  1  1
  1  5  1  0
  5  6  1  6
  5  7  1  0
  7  8  1  6
  3  9  1  0
  3 10  1  0
  6 11  1  0
  7 12  1  0
 11 12  1  0
 11 13  1  1
 12 14  1  6
  9 15  1  0
 10 16  1  0
 16 17  1  0
 15 18  2  0
 15 19  1  0
M  END
>  <%Rank>  (837) 
63.816794

>  <N_hits>  (837) 
2

>  <submitter_name>  (837) 
nan

>  <original SMILES>  (837) 
nan

>  <∆G_unbound>  (837) 
1.668494

>  <∆G_bound>  (837) 
-4.041115

>  <regarded>  (837) 
5L9K_0_A_α,mArh-3gqe_A_0_A_α

>  <ref_pdb>  (837) 
nan

>  <smiles>  (837) 
O=C(O)CN(CCO)CC(O)C1OC(O)C(O)C1O

>  <submitter_email>  (837) 
nan

>  <disregarded>  (837) 


>  <LE>  (837) 
-0.300506

>  <submitter_institution>  (837) 
nan

>  <ref_mols>  (837) 
5L9K_0_A,mArh-3gqe_A_0_A

>  <N_constrained_atoms>  (837) 
19.0

>  <ref_url>  (837) 
nan

>  <method>  (837) 
nan

>  <comRMSD>  (837) 
0.981453

>  <N_unconstrained_atoms>  (837) 
0.0

>  <∆∆G>  (837) 
-5.70961

>  <runtime>  (837) 
42.117706

>  <generation_date>  (837) 
nan

$$$$
6WOJ_0_A_β-mArh-5cms_Q_16_Q_γ
     RDKit          3D

 16 16  0  0  0  0  0  0  0  0999 V2000
   -1.5000   20.1650   -8.1060 O   0  0  0  0  0  0  0  0  0  0  0  0
   -0.0590   19.6880   -7.4490 P   0  0  0  0  0  0  0  0  0  0  0  0
    0.0250   18.2580   -6.5960 O   0  0  0  0  0  0  0  0  0  0  0  0
    0.2870   18.8890   -8.6720 O   0  0  0  0  0  0  0  0  0  0  0  0
    1.1620   20.6910   -7.5580 O   0  0  0  0  0  0  0  0  0  0  0  0
   -1.3770   18.0000   -5.8780 P   0  0  0  0  0  0  0  0  0  0  0  0
   -1.1500   16.5390   -5.3050 O   0  0  0  0  0  0  0  0  0  0  0  0
   -1.6000   18.5450   -4.3210 O   0  0  0  0  0  0  0  0  0  0  0  0
   -2.6680   17.5330   -6.7290 O   0  0  0  0  0  0  0  0  0  0  0  0
   -0.0240   15.8280   -4.8500 C   0  0  1  0  0  0  0  0  0  0  0  0
   -0.0100   15.7780   -3.4580 O   0  0  0  0  0  0  0  0  0  0  0  0
    0.0420   14.3770   -5.2350 C   0  0  1  0  0  0  0  0  0  0  0  0
    1.3380   13.8200   -5.1680 O   0  0  0  0  0  0  0  0  0  0  0  0
   -1.0180   14.8500   -3.1450 C   0  0  0  0  0  0  0  0  0  0  0  0
   -0.6880   13.6780   -4.0810 C   0  0  1  0  0  0  0  0  0  0  0  0
   -1.7900   13.0470   -4.5980 O   0  0  0  0  0  0  0  0  0  0  0  0
  1  2  1  0
  2  3  1  0
  2  4  1  0
  2  5  1  0
  3  6  1  0
  6  7  1  0
  6  8  1  0
  6  9  1  0
 10  7  1  1
 10 11  1  0
 10 12  1  0
 12 13  1  1
 11 14  1  0
 12 15  1  0
 14 15  1  0
 15 16  1  6
M  CHG  2   4  -1   8  -1
M  END
>  <%Rank>  (838) 
63.89313

>  <N_hits>  (838) 
2

>  <submitter_name>  (838) 
nan

>  <original SMILES>  (838) 
nan

>  <∆G_unbound>  (838) 
1.160673

>  <∆G_bound>  (838) 
-7.384629

>  <regarded>  (838) 
6WOJ_0_A_β,mArh-5cms_Q_16_Q_γ

>  <ref_pdb>  (838) 
nan

>  <smiles>  (838) 
[O-][PH](O)(O)O[PH]([O-])(O)OC1OCC(O)C1O

>  <submitter_email>  (838) 
nan

>  <disregarded>  (838) 


>  <LE>  (838) 
-0.534081

>  <submitter_institution>  (838) 
nan

>  <ref_mols>  (838) 
6WOJ_0_A,mArh-5cms_Q_16_Q

>  <N_constrained_atoms>  (838) 
16.0

>  <ref_url>  (838) 
nan

>  <method>  (838) 
nan

>  <comRMSD>  (838) 
1.035203

>  <N_unconstrained_atoms>  (838) 
0.0

>  <∆∆G>  (838) 
-8.545302

>  <runtime>  (838) 
44.205971

>  <generation_date>  (838) 
nan

$$$$
mArh-5cms_Q_16_Q_α-mArh-5cb5_N_0_N_γ
     RDKit          3D

 23 24  0  0  0  0  0  0  0  0999 V2000
   -1.8620   22.4280   -7.6700 C   0  0  0  0  0  0  0  0  0  0  0  0
   -1.5750   22.1240   -9.1230 C   0  0  1  0  0  0  0  0  0  0  0  0
   -2.8310   21.9490   -9.7700 O   0  0  0  0  0  0  0  0  0  0  0  0
   -0.8290   23.2700   -9.8080 C   0  0  1  0  0  0  0  0  0  0  0  0
    0.5110   22.8800  -10.0900 O   0  0  0  0  0  0  0  0  0  0  0  0
   -2.6810   22.4050  -11.1040 C   0  0  2  0  0  0  0  0  0  0  0  0
   -1.5050   23.3930  -11.1540 C   0  0  1  0  0  0  0  0  0  0  0  0
   -3.8930   22.9950  -11.5400 O   0  0  0  0  0  0  0  0  0  0  0  0
   -1.9320   24.7400  -11.4220 O   0  0  0  0  0  0  0  0  0  0  0  0
    1.3770   22.9000   -8.9650 C   0  0  0  0  0  0  0  0  0  0  0  0
    0.7230   22.2740   -7.7240 C   0  0  0  0  0  0  0  0  0  0  0  0
    0.4070   20.7420   -7.7520 C   0  0  0  0  0  0  0  0  0  0  0  0
   -0.8950   20.2520   -7.0760 C   0  0  0  0  0  0  0  0  0  0  0  0
   -0.7900   18.8850   -6.3570 C   0  0  0  0  0  0  0  0  0  0  0  0
    0.6290   18.3160   -6.2630 C   0  0  0  0  0  0  0  0  0  0  0  0
    0.9500   17.1390   -5.3210 C   0  0  0  0  0  0  0  0  0  0  0  0
   -0.0670   16.0600   -4.9400 C   0  0  2  0  0  0  0  0  0  0  0  0
   -0.5170   16.2490   -3.5940 O   0  0  0  0  0  0  0  0  0  0  0  0
    0.3930   14.6060   -4.9020 C   0  0  2  0  0  0  0  0  0  0  0  0
    0.6460   13.9770   -6.1280 O   0  0  0  0  0  0  0  0  0  0  0  0
   -0.9140   14.9660   -3.0630 C   0  0  0  0  0  0  0  0  0  0  0  0
   -0.8240   14.0160   -4.2300 C   0  0  2  0  0  0  0  0  0  0  0  0
   -0.6500   12.6490   -3.8980 O   0  0  0  0  0  0  0  0  0  0  0  0
  2  1  1  1
  2  3  1  0
  2  4  1  0
  4  5  1  6
  3  6  1  0
  4  7  1  0
  6  7  1  0
  6  8  1  1
  7  9  1  1
  5 10  1  0
 10 11  1  0
 11 12  1  0
 12 13  1  0
 13 14  1  0
 14 15  1  0
 15 16  1  0
 17 16  1  1
 17 18  1  0
 17 19  1  0
 19 20  1  6
 18 21  1  0
 19 22  1  0
 21 22  1  0
 22 23  1  1
M  END
>  <%Rank>  (839) 
63.969466

>  <N_hits>  (839) 
2

>  <submitter_name>  (839) 
nan

>  <original SMILES>  (839) 
nan

>  <∆G_unbound>  (839) 
0.438128

>  <∆G_bound>  (839) 
-9.525643

>  <regarded>  (839) 
mArh-5cms_Q_16_Q_α,mArh-5cb5_N_0_N_γ

>  <ref_pdb>  (839) 
nan

>  <smiles>  (839) 
CC1OC(O)C(O)C1OCCCCCCCC1OCC(O)C1O

>  <submitter_email>  (839) 
nan

>  <disregarded>  (839) 


>  <LE>  (839) 
-0.433207

>  <submitter_institution>  (839) 
nan

>  <ref_mols>  (839) 
mArh-5cms_Q_16_Q,mArh-5cb5_N_0_N

>  <N_constrained_atoms>  (839) 
17.0

>  <ref_url>  (839) 
nan

>  <method>  (839) 
nan

>  <comRMSD>  (839) 
0.831102

>  <N_unconstrained_atoms>  (839) 
6.0

>  <∆∆G>  (839) 
-9.96377

>  <runtime>  (839) 
44.964999

>  <generation_date>  (839) 
nan

$$$$
6WOJ_0_D_β-5CMS_0_O_γ
     RDKit          3D

 16 16  0  0  0  0  0  0  0  0999 V2000
   -1.4860   20.1980   -8.1580 O   0  0  0  0  0  0  0  0  0  0  0  0
   -0.0640   19.7250   -7.4610 P   0  0  0  0  0  0  0  0  0  0  0  0
    0.0160   18.3150   -6.5860 O   0  0  0  0  0  0  0  0  0  0  0  0
    0.2990   18.9080   -8.6670 O   0  0  0  0  0  0  0  0  0  0  0  0
    1.1720   20.7190   -7.5530 O   0  0  0  0  0  0  0  0  0  0  0  0
   -1.3750   18.0290   -5.8640 P   0  0  0  0  0  0  0  0  0  0  0  0
   -1.0800   16.5970   -5.2590 O   0  0  0  0  0  0  0  0  0  0  0  0
   -1.6040   18.5850   -4.3120 O   0  0  0  0  0  0  0  0  0  0  0  0
   -2.6560   17.4980   -6.7000 O   0  0  0  0  0  0  0  0  0  0  0  0
    0.1030   15.9250   -4.8940 C   0  0  1  0  0  0  0  0  0  0  0  0
    0.2430   15.9130   -3.5060 O   0  0  0  0  0  0  0  0  0  0  0  0
    0.1720   14.4730   -5.2750 C   0  0  1  0  0  0  0  0  0  0  0  0
    1.4780   13.9890   -5.4870 O   0  0  0  0  0  0  0  0  0  0  0  0
   -0.6510   14.9150   -3.0940 C   0  0  0  0  0  0  0  0  0  0  0  0
   -0.2260   13.7460   -3.9860 C   0  0  1  0  0  0  0  0  0  0  0  0
   -1.2320   12.8720   -4.2940 O   0  0  0  0  0  0  0  0  0  0  0  0
  1  2  1  0
  2  3  1  0
  2  4  1  0
  2  5  1  0
  3  6  1  0
  6  7  1  0
  6  8  1  0
  6  9  1  0
 10  7  1  1
 10 11  1  0
 10 12  1  0
 12 13  1  1
 11 14  1  0
 12 15  1  0
 14 15  1  0
 15 16  1  6
M  CHG  2   4  -1   8  -1
M  END
>  <%Rank>  (840) 
64.045802

>  <N_hits>  (840) 
2

>  <submitter_name>  (840) 
nan

>  <original SMILES>  (840) 
nan

>  <∆G_unbound>  (840) 
1.160673

>  <∆G_bound>  (840) 
-7.392705

>  <regarded>  (840) 
6WOJ_0_D_β,5CMS_0_O_γ

>  <ref_pdb>  (840) 
nan

>  <smiles>  (840) 
[O-][PH](O)(O)O[PH]([O-])(O)OC1OCC(O)C1O

>  <submitter_email>  (840) 
nan

>  <disregarded>  (840) 


>  <LE>  (840) 
-0.534586

>  <submitter_institution>  (840) 
nan

>  <ref_mols>  (840) 
6WOJ_0_D,5CMS_0_O

>  <N_constrained_atoms>  (840) 
16.0

>  <ref_url>  (840) 
nan

>  <method>  (840) 
nan

>  <comRMSD>  (840) 
1.03684

>  <N_unconstrained_atoms>  (840) 
0.0

>  <∆∆G>  (840) 
-8.553378

>  <runtime>  (840) 
24.421598

>  <generation_date>  (840) 
nan

$$$$
mArh-x0926_0_A_α-5CMS_0_Q_β
     RDKit          3D

 19 19  0  0  0  0  0  0  0  0999 V2000
   -6.6370   15.1760   -0.7610 O   0  0  0  0  0  0  0  0  0  0  0  0
   -5.3920   15.1430   -0.4900 C   0  0  0  0  0  0  0  0  0  0  0  0
   -4.9090   14.9500    0.8810 C   0  0  0  0  0  0  0  0  0  0  0  0
   -4.4760   15.2820   -1.5630 N   0  0  0  0  0  0  0  0  0  0  0  0
   -3.0830   15.3180   -1.3590 N   0  0  0  0  0  0  0  0  0  0  0  0
   -3.5050   15.2510    1.0040 C   0  0  0  0  0  0  0  0  0  0  0  0
   -2.1610   15.7060   -2.3990 C   0  0  0  0  0  0  0  0  0  0  0  0
   -2.6950   15.4160    0.0070 C   0  0  0  0  0  0  0  0  0  0  0  0
   -2.1650   14.8610   -3.6440 C   0  0  0  0  0  0  0  0  0  0  0  0
   -2.4220   15.7780   -4.8180 C   0  0  0  0  0  0  0  0  0  0  0  0
   -1.2510   16.4510   -5.1140 O   0  0  0  0  0  0  0  0  0  0  0  0
   -1.7520   17.9260   -5.8570 P   0  0  0  0  0  0  0  0  0  0  0  0
   -1.6050   18.2780   -7.3260 O   0  0  0  0  0  0  0  0  0  0  0  0
   -3.0420   17.1350   -6.1570 O   0  0  0  0  0  0  0  0  0  0  0  0
   -2.3400   19.0620   -4.8650 O   0  0  0  0  0  0  0  0  0  0  0  0
   -0.4810   19.3550   -7.7430 P   0  0  0  0  0  0  0  0  0  0  0  0
   -0.3910   20.8700   -7.2220 O   0  0  0  0  0  0  0  0  0  0  0  0
   -1.2360   19.8580   -8.8950 O   0  0  0  0  0  0  0  0  0  0  0  0
    0.4450   18.7350   -8.8920 O   0  0  0  0  0  0  0  0  0  0  0  0
  1  2  2  0
  2  3  1  0
  2  4  1  0
  4  5  1  0
  3  6  1  0
  5  7  1  0
  5  8  1  0
  6  8  2  0
  7  9  1  0
  9 10  1  0
 10 11  1  0
 11 12  1  0
 12 13  1  0
 12 14  1  0
 12 15  1  0
 13 16  1  0
 16 17  1  0
 16 18  1  0
 16 19  1  0
M  CHG  2  14  -1  18  -1
M  END
>  <%Rank>  (841) 
64.122137

>  <N_hits>  (841) 
2

>  <submitter_name>  (841) 
nan

>  <original SMILES>  (841) 
nan

>  <∆G_unbound>  (841) 
0.727

>  <∆G_bound>  (841) 
-7.641306

>  <regarded>  (841) 
mArh-x0926_0_A_α,5CMS_0_Q_β

>  <ref_pdb>  (841) 
nan

>  <smiles>  (841) 
O=C1CC=CN(CCCO[PH]([O-])(O)O[PH]([O-])(O)O)N1

>  <submitter_email>  (841) 
nan

>  <disregarded>  (841) 


>  <LE>  (841) 
-0.440437

>  <submitter_institution>  (841) 
nan

>  <ref_mols>  (841) 
mArh-x0926_0_A,5CMS_0_Q

>  <N_constrained_atoms>  (841) 
16.0

>  <ref_url>  (841) 
nan

>  <method>  (841) 
nan

>  <comRMSD>  (841) 
0.896321

>  <N_unconstrained_atoms>  (841) 
3.0

>  <∆∆G>  (841) 
-8.368305

>  <runtime>  (841) 
32.342736

>  <generation_date>  (841) 
nan

$$$$
5CB5_0_E_δ-mArh-x0689_0_A_α
     RDKit          3D

 11 12  0  0  0  0  0  0  0  0999 V2000
   -3.7930   14.6870    1.7240 N   0  0  0  0  0  0  0  0  0  0  0  0
   -5.1460   14.9280    1.2890 C   0  0  0  0  0  0  0  0  0  0  0  0
   -2.7880   15.4560    1.0260 C   0  0  2  0  0  0  0  0  0  0  0  0
   -2.8490   15.5370   -0.4970 C   0  0  1  0  0  0  0  0  0  0  0  0
   -1.4870   15.0190    1.4910 N   0  0  0  0  0  0  0  0  0  0  0  0
   -1.7700   14.6240   -1.0130 C   0  0  1  0  0  0  0  0  0  0  0  0
   -4.0010   15.0430   -1.2620 N   0  0  0  0  0  0  0  0  0  0  0  0
   -0.3570   15.4620    0.6980 C   0  0  0  0  0  0  0  0  0  0  0  0
   -1.9890   14.6920   -2.4420 N   0  0  0  0  0  0  0  0  0  0  0  0
   -3.4250   14.9400   -2.5970 C   0  0  0  0  0  0  0  0  0  0  0  0
   -0.4280   15.0440   -0.6880 N   0  0  0  0  0  0  0  0  0  0  0  0
  1  2  1  0
  3  1  1  6
  3  4  1  0
  3  5  1  0
  4  6  1  0
  4  7  1  6
  5  8  1  0
  6  9  1  6
  7 10  1  0
  9 10  1  0
  6 11  1  0
  8 11  1  0
M  END
>  <%Rank>  (842) 
64.198473

>  <N_hits>  (842) 
2

>  <submitter_name>  (842) 
nan

>  <original SMILES>  (842) 
nan

>  <∆G_unbound>  (842) 
0.289684

>  <∆G_bound>  (842) 
-2.125685

>  <regarded>  (842) 
5CB5_0_E_δ,mArh-x0689_0_A_α

>  <ref_pdb>  (842) 
nan

>  <smiles>  (842) 
CNC1NCNC2NCNC12

>  <submitter_email>  (842) 
nan

>  <disregarded>  (842) 


>  <LE>  (842) 
-0.219579

>  <submitter_institution>  (842) 
nan

>  <ref_mols>  (842) 
5CB5_0_E,mArh-x0689_0_A

>  <N_constrained_atoms>  (842) 
11.0

>  <ref_url>  (842) 
nan

>  <method>  (842) 
nan

>  <comRMSD>  (842) 
0.745891

>  <N_unconstrained_atoms>  (842) 
0.0

>  <∆∆G>  (842) 
-2.415369

>  <runtime>  (842) 
26.974184

>  <generation_date>  (842) 
nan

$$$$
mArh-5l9k_A_0_A_α-mArh-x0766_0_A_α
     RDKit          3D

 29 31  0  0  0  0  0  0  0  0999 V2000
   -2.4260   21.6180   -8.9530 C   0  0  0  0  0  0  0  0  0  0  0  0
   -3.1640   22.5750   -8.0790 C   0  0  2  0  0  0  0  0  0  0  0  0
   -3.7050   21.7450   -7.0870 O   0  0  0  0  0  0  0  0  0  0  0  0
   -4.3320   23.4040   -8.6040 C   0  0  1  0  0  0  0  0  0  0  0  0
   -5.2830   22.7220   -9.4340 O   0  0  0  0  0  0  0  0  0  0  0  0
   -4.8160   22.3950   -6.5190 C   0  0  1  0  0  0  0  0  0  0  0  0
   -4.9830   23.7230   -7.2570 C   0  0  2  0  0  0  0  0  0  0  0  0
   -5.8300   21.4610   -6.7330 O   0  0  0  0  0  0  0  0  0  0  0  0
   -6.3450   24.0930   -7.3540 O   0  0  0  0  0  0  0  0  0  0  0  0
   -4.9780   20.4050   -7.1920 C   0  0  0  0  0  0  0  0  0  0  0  0
   -3.6140   20.4260   -6.4320 C   0  0  0  0  0  0  0  0  0  0  0  0
   -2.6930   19.1950   -6.6440 C   0  0  0  0  0  0  0  0  0  0  0  0
   -1.6850   18.8890   -5.5240 C   0  0  0  0  0  0  0  0  0  0  0  0
   -1.3460   17.3970   -5.3070 C   0  0  0  0  0  0  0  0  0  0  0  0
   -2.5780   16.5020   -5.0560 C   0  0  0  0  0  0  0  0  0  0  0  0
   -2.3190   15.0570   -4.5900 C   0  0  0  0  0  0  0  0  0  0  0  0
   -2.2510   14.8870   -3.0750 C   0  0  0  0  0  0  0  0  0  0  0  0
   -1.1170   14.7380   -2.2780 C   0  0  0  0  0  0  0  0  0  0  0  0
   -3.6940   14.8740   -2.1250 S   0  0  0  0  0  0  0  0  0  0  0  0
    0.3200   14.7250   -2.7740 C   0  0  1  0  0  0  0  0  0  0  0  0
   -1.4780   14.6080   -0.8910 C   0  0  0  0  0  0  0  0  0  0  0  0
   -2.8300   14.6660   -0.6750 C   0  0  0  0  0  0  0  0  0  0  0  0
    0.9480   13.3820   -3.2230 C   0  0  1  0  0  0  0  0  0  0  0  0
    0.5490   15.6660   -3.9510 C   0  0  0  0  0  0  0  0  0  0  0  0
    0.4370   12.2170   -2.4290 C   0  0  0  0  0  0  0  0  0  0  0  0
    0.9750   13.4390   -4.7380 C   0  0  0  0  0  0  0  0  0  0  0  0
    1.4120   14.8810   -4.9060 C   0  0  0  0  0  0  0  0  0  0  0  0
    0.4570   12.2950   -1.2160 O   0  0  0  0  0  0  0  0  0  0  0  0
   -0.0220   11.1300   -3.0740 O   0  0  0  0  0  0  0  0  0  0  0  0
  2  1  1  6
  2  3  1  0
  2  4  1  0
  4  5  1  6
  3  6  1  0
  4  7  1  0
  6  7  1  0
  6  8  1  6
  7  9  1  6
  8 10  1  0
 10 11  1  0
 11 12  1  0
 12 13  1  0
 13 14  1  0
 14 15  1  0
 15 16  1  0
 16 17  1  0
 17 18  2  0
 17 19  1  0
 20 18  1  6
 18 21  1  0
 19 22  1  0
 21 22  2  0
 20 23  1  0
 20 24  1  0
 23 25  1  6
 23 26  1  0
 24 27  1  0
 26 27  1  0
 25 28  2  0
 25 29  1  0
M  END
>  <%Rank>  (843) 
64.274809

>  <N_hits>  (843) 
2

>  <submitter_name>  (843) 
nan

>  <original SMILES>  (843) 
nan

>  <∆G_unbound>  (843) 
0.790142

>  <∆G_bound>  (843) 
-10.008341

>  <regarded>  (843) 
mArh-5l9k_A_0_A_α,mArh-x0766_0_A_α

>  <ref_pdb>  (843) 
nan

>  <smiles>  (843) 
CC1OC(OCCCCCCCc2sccc2C2CCCC2C(=O)O)C(O)C1O

>  <submitter_email>  (843) 
nan

>  <disregarded>  (843) 


>  <LE>  (843) 
-0.372361

>  <submitter_institution>  (843) 
nan

>  <ref_mols>  (843) 
mArh-5l9k_A_0_A,mArh-x0766_0_A

>  <N_constrained_atoms>  (843) 
22.0

>  <ref_url>  (843) 
nan

>  <method>  (843) 
nan

>  <comRMSD>  (843) 
0.917854

>  <N_unconstrained_atoms>  (843) 
7.0

>  <∆∆G>  (843) 
-10.798483

>  <runtime>  (843) 
47.038853

>  <generation_date>  (843) 
nan

$$$$
5CMS_0_A_β-mArh-EU0815_0_A_β
     RDKit          3D

 20 20  0  0  0  0  0  0  0  0999 V2000
   -1.5740   20.3440   -8.3970 O   0  0  0  0  0  0  0  0  0  0  0  0
   -0.2700   19.7410   -7.6090 P   0  0  0  0  0  0  0  0  0  0  0  0
   -0.3910   18.4440   -6.6630 O   0  0  0  0  0  0  0  0  0  0  0  0
    1.0900   20.7250   -7.6090 O   0  0  0  0  0  0  0  0  0  0  0  0
    0.2490   18.8530   -8.7390 O   0  0  0  0  0  0  0  0  0  0  0  0
   -1.8370   18.0140   -6.2330 P   0  0  0  0  0  0  0  0  0  0  0  0
   -2.2330   16.5490   -5.6650 O   0  0  0  0  0  0  0  0  0  0  0  0
   -1.6570   18.4970   -4.8190 O   0  0  0  0  0  0  0  0  0  0  0  0
   -2.9610   19.2920   -6.3270 O   0  0  0  0  0  0  0  0  0  0  0  0
   -1.3530   15.8940   -4.8230 C   0  0  0  0  0  0  0  0  0  0  0  0
   -2.0650   14.8170   -4.0680 C   0  0  0  0  0  0  0  0  0  0  0  0
   -2.9430   15.2190   -2.9870 C   0  0  0  0  0  0  0  0  0  0  0  0
   -4.2040   14.6350   -2.6200 C   0  0  0  0  0  0  0  0  0  0  0  0
   -4.6950   14.7010   -1.2560 C   0  0  0  0  0  0  0  0  0  0  0  0
   -3.8370   14.6110   -0.1730 C   0  0  0  0  0  0  0  0  0  0  0  0
   -6.0240   14.8540   -1.0200 C   0  0  0  0  0  0  0  0  0  0  0  0
   -6.9400   14.9640   -2.0230 F   0  0  0  0  0  0  0  0  0  0  0  0
   -4.2770   14.6650    1.1240 C   0  0  0  0  0  0  0  0  0  0  0  0
   -6.4910   14.9040    0.2600 C   0  0  0  0  0  0  0  0  0  0  0  0
   -5.6430   14.8130    1.3360 C   0  0  0  0  0  0  0  0  0  0  0  0
  1  2  1  0
  2  3  1  0
  2  4  1  0
  2  5  1  0
  3  6  1  0
  6  7  1  0
  6  8  1  0
  6  9  1  0
  7 10  1  0
 10 11  1  0
 11 12  1  0
 12 13  1  0
 13 14  1  0
 14 15  2  0
 14 16  1  0
 16 17  1  0
 15 18  1  0
 16 19  2  0
 18 20  2  0
 19 20  1  0
M  CHG  2   4  -1   8  -1
M  END
>  <%Rank>  (844) 
64.351145

>  <N_hits>  (844) 
2

>  <submitter_name>  (844) 
nan

>  <original SMILES>  (844) 
nan

>  <∆G_unbound>  (844) 
0.224829

>  <∆G_bound>  (844) 
-9.505043

>  <regarded>  (844) 
5CMS_0_A_β,mArh-EU0815_0_A_β

>  <ref_pdb>  (844) 
nan

>  <smiles>  (844) 
[O-][PH](O)(O)O[PH]([O-])(O)OCCCCc1ccccc1F

>  <submitter_email>  (844) 
nan

>  <disregarded>  (844) 


>  <LE>  (844) 
-0.486494

>  <submitter_institution>  (844) 
nan

>  <ref_mols>  (844) 
5CMS_0_A,mArh-EU0815_0_A

>  <N_constrained_atoms>  (844) 
17.0

>  <ref_url>  (844) 
nan

>  <method>  (844) 
nan

>  <comRMSD>  (844) 
0.949559

>  <N_unconstrained_atoms>  (844) 
3.0

>  <∆∆G>  (844) 
-9.729872

>  <runtime>  (844) 
37.042508

>  <generation_date>  (844) 
nan

$$$$
5CB5_0_A_α-mArh-x0895_0_A_α
     RDKit          3D

 22 23  0  0  0  0  0  0  0  0999 V2000
   -1.8520   21.4210   -8.5970 C   0  0  0  0  0  0  0  0  0  0  0  0
   -3.1720   21.8930   -8.0460 C   0  0  2  0  0  0  0  0  0  0  0  0
   -4.2650   21.1390   -8.5360 O   0  0  0  0  0  0  0  0  0  0  0  0
   -3.7030   23.2860   -8.2690 C   0  0  1  0  0  0  0  0  0  0  0  0
   -4.1000   23.4940   -9.6370 O   0  0  0  0  0  0  0  0  0  0  0  0
   -5.2050   21.5380   -7.5700 C   0  0  2  0  0  0  0  0  0  0  0  0
   -4.9640   23.0850   -7.4330 C   0  0  2  0  0  0  0  0  0  0  0  0
   -4.7990   20.8430   -6.3730 O   0  0  0  0  0  0  0  0  0  0  0  0
   -6.0750   23.8180   -7.9950 O   0  0  0  0  0  0  0  0  0  0  0  0
   -3.6040   20.0180   -6.6600 C   0  0  0  0  0  0  0  0  0  0  0  0
   -2.6010   20.0120   -5.4860 C   0  0  0  0  0  0  0  0  0  0  0  0
   -1.7850   18.6710   -5.2050 C   0  0  0  0  0  0  0  0  0  0  0  0
   -2.3310   17.2190   -5.5080 C   0  0  0  0  0  0  0  0  0  0  0  0
   -2.1900   16.0390   -4.4510 C   0  0  0  0  0  0  0  0  0  0  0  0
   -3.3670   15.5880   -3.4890 C   0  0  0  0  0  0  0  0  0  0  0  0
   -2.8770   14.8850   -2.2880 N   0  0  0  0  0  0  0  0  0  0  0  0
   -3.2390   14.9230   -1.0220 C   0  0  0  0  0  0  0  0  0  0  0  0
   -4.2090   15.6420   -0.3660 N   0  0  0  0  0  0  0  0  0  0  0  0
   -2.6480   14.1790   -0.0770 N   0  0  0  0  0  0  0  0  0  0  0  0
   -3.8850   15.7040    1.0720 C   0  0  0  0  0  0  0  0  0  0  0  0
   -2.6240   14.8450    1.0950 C   0  0  0  0  0  0  0  0  0  0  0  0
   -1.7590   14.7310    1.9530 O   0  0  0  0  0  0  0  0  0  0  0  0
  2  1  1  6
  2  3  1  0
  2  4  1  0
  4  5  1  6
  3  6  1  0
  4  7  1  0
  6  7  1  0
  6  8  1  1
  7  9  1  6
  8 10  1  0
 10 11  1  0
 11 12  1  0
 12 13  1  0
 13 14  1  0
 14 15  1  0
 15 16  1  0
 16 17  2  3
 17 18  1  0
 17 19  1  0
 18 20  1  0
 19 21  1  0
 20 21  1  0
 21 22  2  0
M  END
>  <%Rank>  (845) 
64.427481

>  <N_hits>  (845) 
2

>  <submitter_name>  (845) 
nan

>  <original SMILES>  (845) 
nan

>  <∆G_unbound>  (845) 
2.078173

>  <∆G_bound>  (845) 
-7.607657

>  <regarded>  (845) 
5CB5_0_A_α,mArh-x0895_0_A_α

>  <ref_pdb>  (845) 
nan

>  <smiles>  (845) 
CC1OC(OCCCCCCN=C2NCC(=O)N2)C(O)C1O

>  <submitter_email>  (845) 
nan

>  <disregarded>  (845) 


>  <LE>  (845) 
-0.440265

>  <submitter_institution>  (845) 
nan

>  <ref_mols>  (845) 
5CB5_0_A,mArh-x0895_0_A

>  <N_constrained_atoms>  (845) 
16.0

>  <ref_url>  (845) 
nan

>  <method>  (845) 
nan

>  <comRMSD>  (845) 
0.804698

>  <N_unconstrained_atoms>  (845) 
6.0

>  <∆∆G>  (845) 
-9.68583

>  <runtime>  (845) 
42.194066

>  <generation_date>  (845) 
nan

$$$$
5CMS_0_A_β-5L9K_0_A_α
     RDKit          3D

 17 17  0  0  0  0  0  0  0  0999 V2000
   -2.5460   20.8620   -7.6360 O   0  0  0  0  0  0  0  0  0  0  0  0
   -0.9440   20.2680   -7.8780 P   0  0  0  0  0  0  0  0  0  0  0  0
   -0.4690   19.3120   -6.6390 O   0  0  0  0  0  0  0  0  0  0  0  0
   -3.2740   21.6390   -8.5740 C   0  0  1  0  0  0  0  0  0  0  0  0
   -0.4270   21.5220   -7.2080 O   0  0  0  0  0  0  0  0  0  0  0  0
   -1.2520   18.9800   -8.6000 O   0  0  0  0  0  0  0  0  0  0  0  0
   -4.5820   21.2710   -8.5490 O   0  0  0  0  0  0  0  0  0  0  0  0
   -3.5310   23.1400   -8.1770 C   0  0  1  0  0  0  0  0  0  0  0  0
   -1.2880   18.1670   -5.9270 P   0  0  0  0  0  0  0  0  0  0  0  0
   -4.2940   23.7150   -9.2020 O   0  0  0  0  0  0  0  0  0  0  0  0
   -5.2860   21.8670   -7.5290 C   0  0  1  0  0  0  0  0  0  0  0  0
   -4.4480   22.9480   -6.9580 C   0  0  2  0  0  0  0  0  0  0  0  0
   -1.8940   16.9400   -5.2300 O   0  0  0  0  0  0  0  0  0  0  0  0
   -2.3520   17.9750   -7.1580 O   0  0  0  0  0  0  0  0  0  0  0  0
   -1.8250   19.1650   -4.7410 O   0  0  0  0  0  0  0  0  0  0  0  0
   -6.4910   22.3380   -7.9690 O   0  0  0  0  0  0  0  0  0  0  0  0
   -5.2220   24.1100   -6.7390 O   0  0  0  0  0  0  0  0  0  0  0  0
  1  2  1  0
  2  3  1  0
  4  1  1  1
  2  5  1  0
  2  6  1  0
  4  7  1  0
  4  8  1  0
  3  9  1  0
  8 10  1  6
  7 11  1  0
  8 12  1  0
 11 12  1  0
  9 13  1  0
  9 14  1  0
  9 15  1  0
 11 16  1  6
 12 17  1  6
M  CHG  2   5  -1  14  -1
M  END
>  <%Rank>  (846) 
64.503817

>  <N_hits>  (846) 
2

>  <submitter_name>  (846) 
nan

>  <original SMILES>  (846) 
nan

>  <∆G_unbound>  (846) 
0.972863

>  <∆G_bound>  (846) 
-7.390395

>  <regarded>  (846) 
5CMS_0_A_β,5L9K_0_A_α

>  <ref_pdb>  (846) 
nan

>  <smiles>  (846) 
[O-][PH](O)(O)O[PH]([O-])(O)OC1OC(O)C(O)C1O

>  <submitter_email>  (846) 
nan

>  <disregarded>  (846) 


>  <LE>  (846) 
-0.491956

>  <submitter_institution>  (846) 
nan

>  <ref_mols>  (846) 
5CMS_0_A,5L9K_0_A

>  <N_constrained_atoms>  (846) 
17.0

>  <ref_url>  (846) 
nan

>  <method>  (846) 
nan

>  <comRMSD>  (846) 
1.042474

>  <N_unconstrained_atoms>  (846) 
0.0

>  <∆∆G>  (846) 
-8.363258

>  <runtime>  (846) 
30.781419

>  <generation_date>  (846) 
nan

$$$$
mArh-x0805_0_A_β-6FX7_0_A_γ
     RDKit          3D

 12 12  0  0  0  0  0  0  0  0999 V2000
    0.4290   12.1110   -2.5710 C   0  0  0  0  0  0  0  0  0  0  0  0
    0.2840   10.9260   -3.2140 O   0  0  0  0  0  0  0  0  0  0  0  0
    0.3840   12.2270   -1.3580 O   0  0  0  0  0  0  0  0  0  0  0  0
    0.6360   13.3090   -3.4480 C   0  0  2  0  0  0  0  0  0  0  0  0
   -0.5740   13.8550   -4.1320 C   0  0  1  0  0  0  0  0  0  0  0  0
    1.6620   13.3100   -4.5320 C   0  0  1  0  0  0  0  0  0  0  0  0
   -1.7780   13.3160   -3.5620 O   0  0  0  0  0  0  0  0  0  0  0  0
    1.1000   12.8260   -5.7380 O   0  0  0  0  0  0  0  0  0  0  0  0
    1.9770   14.6900   -4.7600 O   0  0  0  0  0  0  0  0  0  0  0  0
   -0.3860   15.3420   -3.9440 C   0  0  0  0  0  0  0  0  0  0  0  0
    1.0540   15.7470   -4.3320 C   0  0  2  0  0  0  0  0  0  0  0  0
    0.9440   16.8310   -5.4020 C   0  0  0  0  0  0  0  0  0  0  0  0
  1  2  1  0
  1  3  2  0
  4  1  1  6
  4  5  1  0
  4  6  1  0
  5  7  1  1
  6  8  1  6
  6  9  1  0
  5 10  1  0
  9 11  1  0
 10 11  1  0
 11 12  1  6
M  END
>  <%Rank>  (847) 
64.580153

>  <N_hits>  (847) 
2

>  <submitter_name>  (847) 
nan

>  <original SMILES>  (847) 
nan

>  <∆G_unbound>  (847) 
0.431034

>  <∆G_bound>  (847) 
-2.862822

>  <regarded>  (847) 
mArh-x0805_0_A_β,6FX7_0_A_γ

>  <ref_pdb>  (847) 
nan

>  <smiles>  (847) 
CC1CC(O)C(C(=O)O)C(O)O1

>  <submitter_email>  (847) 
nan

>  <disregarded>  (847) 


>  <LE>  (847) 
-0.274488

>  <submitter_institution>  (847) 
nan

>  <ref_mols>  (847) 
mArh-x0805_0_A,6FX7_0_A

>  <N_constrained_atoms>  (847) 
12.0

>  <ref_url>  (847) 
nan

>  <method>  (847) 
nan

>  <comRMSD>  (847) 
0.809918

>  <N_unconstrained_atoms>  (847) 
0.0

>  <∆∆G>  (847) 
-3.293857

>  <runtime>  (847) 
26.833802

>  <generation_date>  (847) 
nan

$$$$
5CMS_0_N_γ-5CMS_0_J_β
     RDKit          3D

 16 16  0  0  0  0  0  0  0  0999 V2000
    0.4170   12.4470   -3.9340 O   0  0  0  0  0  0  0  0  0  0  0  0
    0.7560   13.7800   -4.0970 C   0  0  2  0  0  0  0  0  0  0  0  0
    0.4070   14.6610   -2.9300 C   0  0  0  0  0  0  0  0  0  0  0  0
   -0.0020   14.4330   -5.2070 C   0  0  2  0  0  0  0  0  0  0  0  0
    0.8830   14.3430   -6.2400 O   0  0  0  0  0  0  0  0  0  0  0  0
    0.5150   15.9200   -3.5170 O   0  0  0  0  0  0  0  0  0  0  0  0
   -0.2470   15.8220   -4.6640 C   0  0  1  0  0  0  0  0  0  0  0  0
   -0.0120   17.0780   -5.5140 C   0  0  0  0  0  0  0  0  0  0  0  0
   -1.4560   18.0360   -5.8030 P   0  0  0  0  0  0  0  0  0  0  0  0
   -0.8250   19.3230   -6.3320 O   0  0  0  0  0  0  0  0  0  0  0  0
   -2.2570   17.9780   -7.2880 O   0  0  0  0  0  0  0  0  0  0  0  0
   -2.1530   18.9360   -4.7000 O   0  0  0  0  0  0  0  0  0  0  0  0
   -0.7540   19.6750   -7.8690 P   0  0  0  0  0  0  0  0  0  0  0  0
    0.2570   20.8140   -7.7270 O   0  0  0  0  0  0  0  0  0  0  0  0
    0.3170   18.8360   -8.8080 O   0  0  0  0  0  0  0  0  0  0  0  0
   -1.8420   20.6970   -8.5710 O   0  0  0  0  0  0  0  0  0  0  0  0
  2  1  1  1
  2  3  1  0
  2  4  1  0
  4  5  1  6
  3  6  1  0
  4  7  1  0
  6  7  1  0
  7  8  1  6
  8  9  1  0
  9 10  1  0
  9 11  1  0
  9 12  1  0
 10 13  1  0
 13 14  1  0
 13 15  1  0
 13 16  1  0
M  CHG  2  11  -1  15  -1
M  END
>  <%Rank>  (848) 
64.656489

>  <N_hits>  (848) 
2

>  <submitter_name>  (848) 
nan

>  <original SMILES>  (848) 
nan

>  <∆G_unbound>  (848) 
0.683631

>  <∆G_bound>  (848) 
-6.43757

>  <regarded>  (848) 
5CMS_0_N_γ,5CMS_0_J_β

>  <ref_pdb>  (848) 
nan

>  <smiles>  (848) 
[O-][PH](O)(O)O[PH]([O-])(O)CC1OCC(O)C1O

>  <submitter_email>  (848) 
nan

>  <disregarded>  (848) 


>  <LE>  (848) 
-0.445075

>  <submitter_institution>  (848) 
nan

>  <ref_mols>  (848) 
5CMS_0_N,5CMS_0_J

>  <N_constrained_atoms>  (848) 
16.0

>  <ref_url>  (848) 
nan

>  <method>  (848) 
nan

>  <comRMSD>  (848) 
1.003278

>  <N_unconstrained_atoms>  (848) 
0.0

>  <∆∆G>  (848) 
-7.121201

>  <runtime>  (848) 
34.76301

>  <generation_date>  (848) 
nan

$$$$
3Q6Z_0_A_α-5CB5_0_G_β
     RDKit          3D

 17 17  0  0  0  0  0  0  0  0999 V2000
   -1.9600   21.4660   -8.4890 C   0  0  0  0  0  0  0  0  0  0  0  0
   -0.9010   20.4590   -7.5720 P   0  0  0  0  0  0  0  0  0  0  0  0
   -1.4410   19.7690   -6.1730 O   0  0  0  0  0  0  0  0  0  0  0  0
   -3.4370   21.7170   -8.2040 C   0  0  2  0  0  0  0  0  0  0  0  0
    0.7230   20.5020   -7.8960 O   0  0  0  0  0  0  0  0  0  0  0  0
   -0.9670   19.1090   -8.3300 O   0  0  0  0  0  0  0  0  0  0  0  0
   -3.7230   23.1950   -7.8810 C   0  0  1  0  0  0  0  0  0  0  0  0
   -3.8700   21.0290   -7.0540 O   0  0  0  0  0  0  0  0  0  0  0  0
   -4.5810   23.7560   -8.8310 O   0  0  0  0  0  0  0  0  0  0  0  0
   -1.5470   18.1430   -6.1550 P   0  0  0  0  0  0  0  0  0  0  0  0
   -4.4540   23.0900   -6.5290 C   0  0  2  0  0  0  0  0  0  0  0  0
   -4.9810   21.7250   -6.6860 C   0  0  1  0  0  0  0  0  0  0  0  0
   -5.4660   24.0550   -6.5460 O   0  0  0  0  0  0  0  0  0  0  0  0
   -6.0180   21.6770   -7.6400 O   0  0  0  0  0  0  0  0  0  0  0  0
   -0.3660   17.1720   -5.6200 O   0  0  0  0  0  0  0  0  0  0  0  0
   -2.2500   18.1880   -4.8600 O   0  0  0  0  0  0  0  0  0  0  0  0
   -2.9060   17.4640   -6.7460 O   0  0  0  0  0  0  0  0  0  0  0  0
  1  2  1  0
  2  3  1  0
  4  1  1  1
  2  5  1  0
  2  6  1  0
  4  7  1  0
  4  8  1  0
  7  9  1  6
  3 10  1  0
  7 11  1  0
  8 12  1  0
 11 12  1  0
 11 13  1  6
 12 14  1  6
 10 15  1  0
 10 16  1  0
 10 17  1  0
M  CHG  2   5  -1  16  -1
M  END
>  <%Rank>  (849) 
64.732824

>  <N_hits>  (849) 
2

>  <submitter_name>  (849) 
nan

>  <original SMILES>  (849) 
nan

>  <∆G_unbound>  (849) 
1.146811

>  <∆G_bound>  (849) 
-8.266397

>  <regarded>  (849) 
3Q6Z_0_A_α,5CB5_0_G_β

>  <ref_pdb>  (849) 
nan

>  <smiles>  (849) 
[O-][PH](O)(O)O[PH]([O-])(O)CC1OC(O)C(O)C1O

>  <submitter_email>  (849) 
nan

>  <disregarded>  (849) 


>  <LE>  (849) 
-0.553718

>  <submitter_institution>  (849) 
nan

>  <ref_mols>  (849) 
3Q6Z_0_A,5CB5_0_G

>  <N_constrained_atoms>  (849) 
17.0

>  <ref_url>  (849) 
nan

>  <method>  (849) 
nan

>  <comRMSD>  (849) 
1.080962

>  <N_unconstrained_atoms>  (849) 
0.0

>  <∆∆G>  (849) 
-9.413208

>  <runtime>  (849) 
37.079297

>  <generation_date>  (849) 
nan

$$$$
mArh-x0962_1_A_α-mArh-2fav_B_0_B_δ
     RDKit          3D

 18 20  0  0  0  0  0  0  0  0999 V2000
   -5.2010   14.8490   -2.0540 N   0  0  0  0  0  0  0  0  0  0  0  0
   -4.9800   14.7190   -0.6180 C   0  0  1  0  0  0  0  0  0  0  0  0
   -4.2010   15.8740   -0.0330 C   0  0  0  0  0  0  0  0  0  0  0  0
   -6.2050   14.6070    0.1550 C   0  0  0  0  0  0  0  0  0  0  0  0
   -3.4380   15.5840    1.1590 N   0  0  0  0  0  0  0  0  0  0  0  0
   -6.2490   14.4480    1.5220 N   0  0  0  0  0  0  0  0  0  0  0  0
   -7.5120   14.6360   -0.2400 C   0  0  0  0  0  0  0  0  0  0  0  0
   -7.5490   14.3910    1.8800 C   0  0  0  0  0  0  0  0  0  0  0  0
   -8.3410   14.5020    0.8360 N   0  0  0  0  0  0  0  0  0  0  0  0
   -2.2050   15.0020    0.7330 C   0  0  2  0  0  0  0  0  0  0  0  0
   -2.3940   14.2290   -0.5910 C   0  0  2  0  0  0  0  0  0  0  0  0
   -1.6590   14.1770    1.7250 N   0  0  0  0  0  0  0  0  0  0  0  0
   -0.9960   13.7830   -0.9630 C   0  0  1  0  0  0  0  0  0  0  0  0
   -2.8960   15.0300   -1.7330 N   0  0  0  0  0  0  0  0  0  0  0  0
   -0.2660   13.9760    1.3970 C   0  0  0  0  0  0  0  0  0  0  0  0
   -0.7320   14.4640   -2.2240 N   0  0  0  0  0  0  0  0  0  0  0  0
   -2.0250   14.6850   -2.8320 C   0  0  0  0  0  0  0  0  0  0  0  0
    0.0340   14.1950   -0.0300 N   0  0  0  0  0  0  0  0  0  0  0  0
  2  1  1  6
  2  3  1  0
  2  4  1  0
  3  5  1  0
  4  6  1  0
  4  7  2  0
  6  8  1  0
  7  9  1  0
  8  9  2  0
 10  5  1  1
 10 11  1  0
 10 12  1  0
 11 13  1  0
 11 14  1  6
 12 15  1  0
 13 16  1  6
 14 17  1  0
 16 17  1  0
 13 18  1  0
 15 18  1  0
M  END
>  <%Rank>  (850) 
64.80916

>  <N_hits>  (850) 
2

>  <submitter_name>  (850) 
nan

>  <original SMILES>  (850) 
nan

>  <∆G_unbound>  (850) 
3.021454

>  <∆G_bound>  (850) 
1.035056

>  <regarded>  (850) 
mArh-x0962_1_A_α,mArh-2fav_B_0_B_δ

>  <ref_pdb>  (850) 
nan

>  <smiles>  (850) 
NC(CNC1NCNC2NCNC21)c1cnc[nH]1

>  <submitter_email>  (850) 
nan

>  <disregarded>  (850) 


>  <LE>  (850) 
-0.110355

>  <submitter_institution>  (850) 
nan

>  <ref_mols>  (850) 
mArh-x0962_1_A,mArh-2fav_B_0_B

>  <N_constrained_atoms>  (850) 
17.0

>  <ref_url>  (850) 
nan

>  <method>  (850) 
nan

>  <comRMSD>  (850) 
0.831083

>  <N_unconstrained_atoms>  (850) 
1.0

>  <∆∆G>  (850) 
-1.986398

>  <runtime>  (850) 
25.20054

>  <generation_date>  (850) 
nan

$$$$
3GQE_0_A_α-mArh-5cb5_G_0_G_γ
     RDKit          3D

 21 21  0  0  0  0  0  0  0  0999 V2000
   -2.3270   18.6290   -6.6240 C   0  0  0  0  0  0  0  0  0  0  0  0
   -2.5800   19.9380   -7.2330 N   0  0  0  0  0  0  0  0  0  0  0  0
   -3.1760   20.9350   -6.3050 C   0  0  0  0  0  0  0  0  0  0  0  0
   -2.1450   18.6920   -5.1330 C   0  0  1  0  0  0  0  0  0  0  0  0
   -1.4190   20.4980   -7.9030 C   0  0  0  0  0  0  0  0  0  0  0  0
   -2.5770   17.4880   -4.4990 O   0  0  0  0  0  0  0  0  0  0  0  0
   -0.8530   19.0370   -4.7990 O   0  0  0  0  0  0  0  0  0  0  0  0
   -3.3960   22.3120   -6.9590 C   0  0  0  0  0  0  0  0  0  0  0  0
   -0.1400   19.6650   -7.8760 C   0  0  0  0  0  0  0  0  0  0  0  0
   -0.0190   18.0030   -4.4000 C   0  0  0  0  0  0  0  0  0  0  0  0
   -4.4000   22.2530   -7.9730 O   0  0  0  0  0  0  0  0  0  0  0  0
   -0.2230   18.5030   -8.6970 O   0  0  0  0  0  0  0  0  0  0  0  0
    0.8200   17.5810   -5.5610 C   0  0  0  0  0  0  0  0  0  0  0  0
    1.1720   16.1490   -5.2620 C   0  0  0  0  0  0  0  0  0  0  0  0
    0.0110   15.3670   -4.7420 C   0  0  2  0  0  0  0  0  0  0  0  0
   -0.2600   15.6590   -3.3690 O   0  0  0  0  0  0  0  0  0  0  0  0
    0.1890   13.8750   -4.7520 C   0  0  2  0  0  0  0  0  0  0  0  0
    0.3150   13.3020   -6.0370 O   0  0  0  0  0  0  0  0  0  0  0  0
   -1.0550   14.5560   -2.9140 C   0  0  0  0  0  0  0  0  0  0  0  0
   -1.1220   13.5620   -4.0720 C   0  0  2  0  0  0  0  0  0  0  0  0
   -1.1880   12.2130   -3.6470 O   0  0  0  0  0  0  0  0  0  0  0  0
  1  2  1  0
  2  3  1  0
  1  4  1  0
  2  5  1  0
  4  6  1  1
  4  7  1  0
  3  8  1  0
  5  9  1  0
  7 10  1  0
  8 11  1  0
  9 12  1  0
 10 13  1  0
 13 14  1  0
 15 14  1  1
 15 16  1  0
 15 17  1  0
 17 18  1  6
 16 19  1  0
 17 20  1  0
 19 20  1  0
 20 21  1  1
M  END
>  <%Rank>  (851) 
64.885496

>  <N_hits>  (851) 
2

>  <submitter_name>  (851) 
nan

>  <original SMILES>  (851) 
nan

>  <∆G_unbound>  (851) 
0.368101

>  <∆G_bound>  (851) 
-7.30434

>  <regarded>  (851) 
3GQE_0_A_α,mArh-5cb5_G_0_G_γ

>  <ref_pdb>  (851) 
nan

>  <smiles>  (851) 
OCCN(CCO)CC(O)OCCCC1OCC(O)C1O

>  <submitter_email>  (851) 
nan

>  <disregarded>  (851) 


>  <LE>  (851) 
-0.365354

>  <submitter_institution>  (851) 
nan

>  <ref_mols>  (851) 
3GQE_0_A,mArh-5cb5_G_0_G

>  <N_constrained_atoms>  (851) 
19.0

>  <ref_url>  (851) 
nan

>  <method>  (851) 
nan

>  <comRMSD>  (851) 
0.977669

>  <N_unconstrained_atoms>  (851) 
2.0

>  <∆∆G>  (851) 
-7.672441

>  <runtime>  (851) 
52.052333

>  <generation_date>  (851) 
nan

$$$$
mArh-3vfq_B_0_A_α-5CMS_0_K_δ
     RDKit          3D

 26 28  0  0  0  0  0  0  0  0999 V2000
   -3.6010   20.8320   -7.6010 C   0  0  0  0  0  0  0  0  0  0  0  0
   -4.6590   21.3240   -8.5460 C   0  0  2  0  0  0  0  0  0  0  0  0
   -4.0670   21.7850   -9.7420 O   0  0  0  0  0  0  0  0  0  0  0  0
   -5.5040   22.4500   -8.1130 C   0  0  2  0  0  0  0  0  0  0  0  0
   -6.2440   21.9550   -7.0700 O   0  0  0  0  0  0  0  0  0  0  0  0
   -5.0120   22.7140  -10.2910 C   0  0  1  0  0  0  0  0  0  0  0  0
   -6.2520   22.6970   -9.4000 C   0  0  1  0  0  0  0  0  0  0  0  0
   -4.4240   24.0010  -10.1890 O   0  0  0  0  0  0  0  0  0  0  0  0
   -7.1670   21.6490   -9.7270 O   0  0  0  0  0  0  0  0  0  0  0  0
   -5.3800   22.0210   -5.9640 C   0  0  0  0  0  0  0  0  0  0  0  0
   -4.4390   20.8350   -5.8000 C   0  0  0  0  0  0  0  0  0  0  0  0
   -2.9020   20.8520   -5.6850 C   0  0  0  0  0  0  0  0  0  0  0  0
   -1.9790   19.5670   -5.5470 C   0  0  0  0  0  0  0  0  0  0  0  0
   -2.2080   18.0770   -5.9540 C   0  0  0  0  0  0  0  0  0  0  0  0
   -1.7310   17.0260   -4.8790 C   0  0  0  0  0  0  0  0  0  0  0  0
   -2.6960   15.9350   -4.2870 C   0  0  0  0  0  0  0  0  0  0  0  0
   -2.4710   15.7110   -2.7530 C   0  0  2  0  0  0  0  0  0  0  0  0
   -1.3950   14.7710   -2.4430 N   0  0  0  0  0  0  0  0  0  0  0  0
   -3.5870   15.2360   -1.8960 N   0  0  0  0  0  0  0  0  0  0  0  0
   -1.6670   14.3780   -1.0570 C   0  0  2  0  0  0  0  0  0  0  0  0
   -2.7900   15.2790   -0.6340 C   0  0  2  0  0  0  0  0  0  0  0  0
   -0.4990   14.4650   -0.2750 N   0  0  0  0  0  0  0  0  0  0  0  0
   -3.2660   14.7590    0.7370 C   0  0  2  0  0  0  0  0  0  0  0  0
   -4.2460   15.5280    1.4860 N   0  0  0  0  0  0  0  0  0  0  0  0
   -0.7710   14.9700    1.0460 C   0  0  0  0  0  0  0  0  0  0  0  0
   -2.0870   14.5970    1.6000 N   0  0  0  0  0  0  0  0  0  0  0  0
  2  1  1  1
  2  3  1  0
  2  4  1  0
  4  5  1  1
  3  6  1  0
  4  7  1  0
  6  7  1  0
  6  8  1  1
  7  9  1  6
  5 10  1  0
 10 11  1  0
 11 12  1  0
 12 13  1  0
 13 14  1  0
 14 15  1  0
 15 16  1  0
 17 16  1  6
 17 18  1  0
 17 19  1  0
 20 18  1  6
 21 19  1  6
 20 21  1  0
 20 22  1  0
 21 23  1  0
 23 24  1  1
 22 25  1  0
 23 26  1  0
 25 26  1  0
M  END
>  <%Rank>  (852) 
64.961832

>  <N_hits>  (852) 
2

>  <submitter_name>  (852) 
nan

>  <original SMILES>  (852) 
nan

>  <∆G_unbound>  (852) 
0.970381

>  <∆G_bound>  (852) 
-4.243883

>  <regarded>  (852) 
mArh-3vfq_B_0_A_α,5CMS_0_K_δ

>  <ref_pdb>  (852) 
nan

>  <smiles>  (852) 
CC1OC(O)C(O)C1OCCCCCCCC1NC2NCNC(N)C2N1

>  <submitter_email>  (852) 
nan

>  <disregarded>  (852) 


>  <LE>  (852) 
-0.200549

>  <submitter_institution>  (852) 
nan

>  <ref_mols>  (852) 
mArh-3vfq_B_0_A,5CMS_0_K

>  <N_constrained_atoms>  (852) 
19.0

>  <ref_url>  (852) 
nan

>  <method>  (852) 
nan

>  <comRMSD>  (852) 
0.765421

>  <N_unconstrained_atoms>  (852) 
7.0

>  <∆∆G>  (852) 
-5.214263

>  <runtime>  (852) 
46.650212

>  <generation_date>  (852) 
nan

$$$$
mArh-5cb5_M_1_M_α-mArh-4iqy_B_0_B_α
     RDKit          3D

 12 12  0  0  0  0  0  0  0  0999 V2000
   -1.7890   21.7710   -8.1350 C   0  0  0  0  0  0  0  0  0  0  0  0
   -3.2320   21.7670   -8.6090 C   0  0  2  0  0  0  0  0  0  0  0  0
   -3.9150   23.1150   -8.4770 C   0  0  1  0  0  0  0  0  0  0  0  0
   -3.9650   20.8340   -7.7950 O   0  0  0  0  0  0  0  0  0  0  0  0
   -3.9540   23.8630   -9.6760 O   0  0  0  0  0  0  0  0  0  0  0  0
   -5.3320   22.7280   -8.1630 C   0  0  1  0  0  0  0  0  0  0  0  0
   -5.2630   21.3590   -7.5040 C   0  0  2  0  0  0  0  0  0  0  0  0
   -5.9530   23.7850   -7.4420 O   0  0  0  0  0  0  0  0  0  0  0  0
   -5.5000   21.3970   -6.1100 O   0  0  0  0  0  0  0  0  0  0  0  0
   -6.7240   24.4380   -8.3440 C   0  0  0  0  0  0  0  0  0  0  0  0
   -5.9870   25.5540   -8.9860 C   0  0  0  0  0  0  0  0  0  0  0  0
   -7.8690   24.1490   -8.6200 O   0  0  0  0  0  0  0  0  0  0  0  0
  2  1  1  1
  2  3  1  0
  2  4  1  0
  3  5  1  6
  3  6  1  0
  4  7  1  0
  6  7  1  0
  6  8  1  1
  7  9  1  1
  8 10  1  0
 10 11  1  0
 10 12  2  0
M  END
>  <%Rank>  (853) 
65.038168

>  <N_hits>  (853) 
2

>  <submitter_name>  (853) 
nan

>  <original SMILES>  (853) 
nan

>  <∆G_unbound>  (853) 
0.761517

>  <∆G_bound>  (853) 
-3.90147

>  <regarded>  (853) 
mArh-5cb5_M_1_M_α,mArh-4iqy_B_0_B_α

>  <ref_pdb>  (853) 
nan

>  <smiles>  (853) 
CC(=O)OC1C(O)OC(C)C1O

>  <submitter_email>  (853) 
nan

>  <disregarded>  (853) 


>  <LE>  (853) 
-0.388582

>  <submitter_institution>  (853) 
nan

>  <ref_mols>  (853) 
mArh-5cb5_M_1_M,mArh-4iqy_B_0_B

>  <N_constrained_atoms>  (853) 
12.0

>  <ref_url>  (853) 
nan

>  <method>  (853) 
nan

>  <comRMSD>  (853) 
0.875484

>  <N_unconstrained_atoms>  (853) 
0.0

>  <∆∆G>  (853) 
-4.662987

>  <runtime>  (853) 
23.813059

>  <generation_date>  (853) 
nan

$$$$
5CB5_0_J_γ-5LW0_1_B_β
     RDKit          3D

 16 16  0  0  0  0  0  0  0  0999 V2000
   -0.2970   12.4040   -3.8080 O   0  0  0  0  0  0  0  0  0  0  0  0
   -0.7310   13.7210   -3.8800 C   0  0  1  0  0  0  0  0  0  0  0  0
   -0.2180   14.5910   -2.7280 C   0  0  0  0  0  0  0  0  0  0  0  0
   -0.1810   14.4360   -5.0780 C   0  0  2  0  0  0  0  0  0  0  0  0
    1.1760   14.1270   -5.1940 O   0  0  0  0  0  0  0  0  0  0  0  0
    0.2190   15.7850   -3.3350 O   0  0  0  0  0  0  0  0  0  0  0  0
   -0.4450   15.7770   -4.5370 C   0  0  1  0  0  0  0  0  0  0  0  0
   -0.2310   17.0070   -5.4070 C   0  0  0  0  0  0  0  0  0  0  0  0
   -1.8090   17.6750   -5.7220 P   0  0  0  0  0  0  0  0  0  0  0  0
   -1.6780   18.4110   -7.0550 O   0  0  0  0  0  0  0  0  0  0  0  0
   -2.9300   16.7550   -6.6100 O   0  0  0  0  0  0  0  0  0  0  0  0
   -2.2850   19.0110   -5.0000 O   0  0  0  0  0  0  0  0  0  0  0  0
   -0.4160   19.0830   -7.7530 P   0  0  0  0  0  0  0  0  0  0  0  0
   -1.2840   19.7840   -8.7610 O   0  0  0  0  0  0  0  0  0  0  0  0
    0.1970   20.6010   -7.4380 O   0  0  0  0  0  0  0  0  0  0  0  0
    0.2690   18.2610   -8.9700 O   0  0  0  0  0  0  0  0  0  0  0  0
  2  1  1  1
  2  3  1  0
  2  4  1  0
  4  5  1  1
  3  6  1  0
  4  7  1  0
  6  7  1  0
  7  8  1  6
  8  9  1  0
  9 10  1  0
  9 11  1  0
  9 12  1  0
 10 13  1  0
 13 14  1  0
 13 15  1  0
 13 16  1  0
M  CHG  2  11  -1  15  -1
M  END
>  <%Rank>  (854) 
65.114504

>  <N_hits>  (854) 
2

>  <submitter_name>  (854) 
nan

>  <original SMILES>  (854) 
nan

>  <∆G_unbound>  (854) 
0.683631

>  <∆G_bound>  (854) 
-6.780238

>  <regarded>  (854) 
5CB5_0_J_γ,5LW0_1_B_β

>  <ref_pdb>  (854) 
nan

>  <smiles>  (854) 
[O-][PH](O)(O)O[PH]([O-])(O)CC1OCC(O)C1O

>  <submitter_email>  (854) 
nan

>  <disregarded>  (854) 


>  <LE>  (854) 
-0.466492

>  <submitter_institution>  (854) 
nan

>  <ref_mols>  (854) 
5CB5_0_J,5LW0_1_B

>  <N_constrained_atoms>  (854) 
16.0

>  <ref_url>  (854) 
nan

>  <method>  (854) 
nan

>  <comRMSD>  (854) 
1.019025

>  <N_unconstrained_atoms>  (854) 
0.0

>  <∆∆G>  (854) 
-7.46387

>  <runtime>  (854) 
35.95518

>  <generation_date>  (854) 
nan

$$$$
6WOJ_0_C_α-mArh-5cms_J_9_J_γ
     RDKit          3D

 22 23  0  0  0  0  0  0  0  0999 V2000
   -2.9530   21.7360   -9.0490 C   0  0  0  0  0  0  0  0  0  0  0  0
   -2.6710   22.8140   -8.0600 C   0  0  2  0  0  0  0  0  0  0  0  0
   -2.6020   22.1330   -6.8310 O   0  0  0  0  0  0  0  0  0  0  0  0
   -3.7970   23.8190   -7.9020 C   0  0  1  0  0  0  0  0  0  0  0  0
   -4.4270   24.0800   -9.1600 O   0  0  0  0  0  0  0  0  0  0  0  0
   -3.8380   22.2600   -6.1510 C   0  0  1  0  0  0  0  0  0  0  0  0
   -4.7830   23.1180   -6.9890 C   0  0  1  0  0  0  0  0  0  0  0  0
   -4.2120   20.9330   -5.8980 O   0  0  0  0  0  0  0  0  0  0  0  0
   -5.4790   24.0840   -6.1720 O   0  0  0  0  0  0  0  0  0  0  0  0
   -2.9150   20.3350   -5.6920 C   0  0  0  0  0  0  0  0  0  0  0  0
   -2.2620   19.6700   -6.8950 C   0  0  0  0  0  0  0  0  0  0  0  0
   -0.7590   19.6620   -6.6620 C   0  0  0  0  0  0  0  0  0  0  0  0
   -0.0540   18.4080   -7.1130 C   0  0  0  0  0  0  0  0  0  0  0  0
    0.7030   17.7130   -5.9650 C   0  0  0  0  0  0  0  0  0  0  0  0
   -0.1860   16.7520   -5.1700 C   0  0  0  0  0  0  0  0  0  0  0  0
    0.5320   15.5330   -4.5570 C   0  0  1  0  0  0  0  0  0  0  0  0
    0.0380   15.4370   -3.1960 O   0  0  0  0  0  0  0  0  0  0  0  0
    0.1940   14.1520   -5.1320 C   0  0  1  0  0  0  0  0  0  0  0  0
    1.0230   13.0700   -4.7290 O   0  0  0  0  0  0  0  0  0  0  0  0
   -1.0040   14.4450   -3.1630 C   0  0  0  0  0  0  0  0  0  0  0  0
   -1.2050   13.9660   -4.5940 C   0  0  2  0  0  0  0  0  0  0  0  0
   -1.6020   12.6130   -4.7230 O   0  0  0  0  0  0  0  0  0  0  0  0
  2  1  1  6
  2  3  1  0
  2  4  1  0
  4  5  1  6
  3  6  1  0
  4  7  1  0
  6  7  1  0
  6  8  1  6
  7  9  1  1
  8 10  1  0
 10 11  1  0
 11 12  1  0
 12 13  1  0
 13 14  1  0
 14 15  1  0
 16 15  1  6
 16 17  1  0
 16 18  1  0
 18 19  1  1
 17 20  1  0
 18 21  1  0
 20 21  1  0
 21 22  1  1
M  END
>  <%Rank>  (855) 
65.19084

>  <N_hits>  (855) 
2

>  <submitter_name>  (855) 
nan

>  <original SMILES>  (855) 
nan

>  <∆G_unbound>  (855) 
0.187336

>  <∆G_bound>  (855) 
-11.467965

>  <regarded>  (855) 
6WOJ_0_C_α,mArh-5cms_J_9_J_γ

>  <ref_pdb>  (855) 
nan

>  <smiles>  (855) 
CC1OC(OCCCCCCC2OCC(O)C2O)C(O)C1O

>  <submitter_email>  (855) 
nan

>  <disregarded>  (855) 


>  <LE>  (855) 
-0.529786

>  <submitter_institution>  (855) 
nan

>  <ref_mols>  (855) 
6WOJ_0_C,mArh-5cms_J_9_J

>  <N_constrained_atoms>  (855) 
17.0

>  <ref_url>  (855) 
nan

>  <method>  (855) 
nan

>  <comRMSD>  (855) 
0.927235

>  <N_unconstrained_atoms>  (855) 
5.0

>  <∆∆G>  (855) 
-11.655301

>  <runtime>  (855) 
35.438566

>  <generation_date>  (855) 
nan

$$$$
5CMS_0_C_β-mArh-EU0815_0_A_α
     RDKit          3D

 24 23  0  0  0  0  0  0  0  0999 V2000
   -1.7530   21.0560   -8.4380 O   0  0  0  0  0  0  0  0  0  0  0  0
   -0.9850   19.8030   -7.6750 P   0  0  0  0  0  0  0  0  0  0  0  0
   -1.3280   19.4120   -6.1440 O   0  0  0  0  0  0  0  0  0  0  0  0
    0.2660   20.6400   -7.4800 O   0  0  0  0  0  0  0  0  0  0  0  0
   -0.0330   18.8140   -8.6920 O   0  0  0  0  0  0  0  0  0  0  0  0
   -1.5070   17.8260   -5.9260 P   0  0  0  0  0  0  0  0  0  0  0  0
   -0.7210   17.6740   -7.1560 O   0  0  0  0  0  0  0  0  0  0  0  0
   -2.7470   17.1130   -6.7220 O   0  0  0  0  0  0  0  0  0  0  0  0
   -2.3350   17.5030   -4.6860 O   0  0  0  0  0  0  0  0  0  0  0  0
   -2.3140   16.1060   -4.4000 C   0  0  0  0  0  0  0  0  0  0  0  0
   -3.4230   15.5160   -3.6220 C   0  0  0  0  0  0  0  0  0  0  0  0
   -2.9770   14.5020   -2.6000 C   0  0  0  0  0  0  0  0  0  0  0  0
   -3.1950   15.0260   -1.2010 C   0  0  0  0  0  0  0  0  0  0  0  0
   -4.1780   14.2340   -0.3830 C   0  0  0  0  0  0  0  0  0  0  0  0
   -5.0790   15.0400    0.4450 C   0  0  0  0  0  0  0  0  0  0  0  0
   -6.3680   14.5150    0.9320 C   0  0  0  0  0  0  0  0  0  0  0  0
   -6.6990   14.6660    2.3150 N   0  0  0  0  0  0  0  0  0  0  0  0
   -7.8820   15.0320    2.9530 C   0  0  0  0  0  0  0  0  0  0  0  0
   -7.8980   15.0410    4.4010 N   0  0  0  0  0  0  0  0  0  0  0  0
   -8.9450   15.3610    2.3880 O   0  0  0  0  0  0  0  0  0  0  0  0
   -9.1410   14.9920    5.1170 C   0  0  1  0  0  0  0  0  0  0  0  0
   -9.5630   13.5600    5.3860 C   0  0  0  0  0  0  0  0  0  0  0  0
   -9.0290   15.7480    6.4450 C   0  0  0  0  0  0  0  0  0  0  0  0
  -10.3120   15.6670    7.0400 O   0  0  0  0  0  0  0  0  0  0  0  0
  1  2  1  0
  2  3  1  0
  2  4  1  0
  2  5  1  0
  3  6  1  0
  6  7  1  0
  6  8  1  0
  6  9  1  0
  9 10  1  0
 10 11  1  0
 11 12  1  0
 12 13  1  0
 13 14  1  0
 14 15  1  0
 15 16  1  0
 16 17  1  0
 17 18  1  0
 18 19  1  0
 18 20  2  0
 19 21  1  0
 21 22  1  1
 21 23  1  0
 23 24  1  0
M  CHG  2   4  -1   8  -1
M  END
>  <%Rank>  (856) 
65.267176

>  <N_hits>  (856) 
2

>  <submitter_name>  (856) 
nan

>  <original SMILES>  (856) 
nan

>  <∆G_unbound>  (856) 
0.516154

>  <∆G_bound>  (856) 
-8.362437

>  <regarded>  (856) 
5CMS_0_C_β,mArh-EU0815_0_A_α

>  <ref_pdb>  (856) 
nan

>  <smiles>  (856) 
C[C@@H](CO)NC(=O)NCCCCCCCO[PH]([O-])(O)O[PH]([O-])(O)O

>  <submitter_email>  (856) 
nan

>  <disregarded>  (856) 


>  <LE>  (856) 
-0.369941

>  <submitter_institution>  (856) 
nan

>  <ref_mols>  (856) 
5CMS_0_C,mArh-EU0815_0_A

>  <N_constrained_atoms>  (856) 
17.0

>  <ref_url>  (856) 
nan

>  <method>  (856) 
nan

>  <comRMSD>  (856) 
0.795823

>  <N_unconstrained_atoms>  (856) 
7.0

>  <∆∆G>  (856) 
-8.878591

>  <runtime>  (856) 
38.000113

>  <generation_date>  (856) 
nan

$$$$
5CMS_0_E_β-mArh-x0591_0_A_α
     RDKit          3D

 22 22  0  0  0  0  0  0  0  0999 V2000
   -1.8870   20.8140   -8.2940 O   0  0  0  0  0  0  0  0  0  0  0  0
   -0.9390   19.6870   -7.6210 P   0  0  0  0  0  0  0  0  0  0  0  0
   -0.9900   19.3020   -6.0380 O   0  0  0  0  0  0  0  0  0  0  0  0
    0.1150   18.8200   -8.6480 O   0  0  0  0  0  0  0  0  0  0  0  0
    0.2700   20.5960   -7.5780 O   0  0  0  0  0  0  0  0  0  0  0  0
   -1.7750   17.8440   -5.7740 P   0  0  0  0  0  0  0  0  0  0  0  0
   -1.2660   16.5840   -4.8760 O   0  0  0  0  0  0  0  0  0  0  0  0
   -3.1040   17.6010   -6.6800 O   0  0  0  0  0  0  0  0  0  0  0  0
   -0.9840   17.6050   -6.9590 O   0  0  0  0  0  0  0  0  0  0  0  0
   -2.1230   15.1520   -4.8640 S   0  0  0  0  0  0  0  0  0  0  0  0
   -1.1860   13.9470   -4.8650 O   0  0  0  0  0  0  0  0  0  0  0  0
   -2.9120   14.9750   -6.1680 O   0  0  0  0  0  0  0  0  0  0  0  0
   -3.3050   14.9560   -3.5870 C   0  0  0  0  0  0  0  0  0  0  0  0
   -2.9890   14.7940   -2.2430 C   0  0  0  0  0  0  0  0  0  0  0  0
   -4.6300   14.9680   -3.8900 C   0  0  0  0  0  0  0  0  0  0  0  0
   -3.9770   14.6720   -1.2800 C   0  0  0  0  0  0  0  0  0  0  0  0
   -5.6180   14.8510   -2.9430 C   0  0  0  0  0  0  0  0  0  0  0  0
   -5.3090   14.7090   -1.6330 C   0  0  0  0  0  0  0  0  0  0  0  0
   -6.4040   14.6040   -0.6250 C   0  0  0  0  0  0  0  0  0  0  0  0
   -6.0760   14.5920    0.6560 N   0  0  0  0  0  0  0  0  0  0  0  0
   -7.5330   14.5480   -1.1260 O   0  0  0  0  0  0  0  0  0  0  0  0
   -5.7330   14.5920    1.9720 C   0  0  0  0  0  0  0  0  0  0  0  0
  1  2  1  0
  2  3  1  0
  2  4  1  0
  2  5  1  0
  3  6  1  0
  6  7  1  0
  6  8  1  0
  6  9  1  0
 10  7  1  0
 10 11  2  0
 10 12  2  0
 10 13  1  0
 13 14  2  0
 13 15  1  0
 14 16  1  0
 15 17  2  0
 16 18  2  0
 17 18  1  0
 18 19  1  0
 19 20  1  0
 19 21  2  0
 20 22  1  0
M  CHG  2   4  -1   8  -1
M  END
>  <%Rank>  (857) 
65.343511

>  <N_hits>  (857) 
2

>  <submitter_name>  (857) 
nan

>  <original SMILES>  (857) 
nan

>  <∆G_unbound>  (857) 
1.184895

>  <∆G_bound>  (857) 
-7.752432

>  <regarded>  (857) 
5CMS_0_E_β,mArh-x0591_0_A_α

>  <ref_pdb>  (857) 
nan

>  <smiles>  (857) 
CNC(=O)c1ccc(S(=O)(=O)O[PH]([O-])(O)O[PH]([O-])(O)O)cc1

>  <submitter_email>  (857) 
nan

>  <disregarded>  (857) 


>  <LE>  (857) 
-0.406242

>  <submitter_institution>  (857) 
nan

>  <ref_mols>  (857) 
5CMS_0_E,mArh-x0591_0_A

>  <N_constrained_atoms>  (857) 
22.0

>  <ref_url>  (857) 
nan

>  <method>  (857) 
nan

>  <comRMSD>  (857) 
1.116705

>  <N_unconstrained_atoms>  (857) 
0.0

>  <∆∆G>  (857) 
-8.937327

>  <runtime>  (857) 
35.039548

>  <generation_date>  (857) 
nan

$$$$
mArh-5cb5_I_0_I_β-5CMS_0_E_β
     RDKit          3D

 10  9  0  0  0  0  0  0  0  0999 V2000
   -1.4370   21.0240   -8.7250 O   0  0  0  0  0  0  0  0  0  0  0  0
   -0.5900   19.8510   -7.8540 P   0  0  0  0  0  0  0  0  0  0  0  0
   -1.5640   19.4880   -6.5550 O   0  0  0  0  0  0  0  0  0  0  0  0
    0.7470   20.3910   -7.4080 O   0  0  0  0  0  0  0  0  0  0  0  0
   -0.1970   18.5530   -8.8250 O   0  0  0  0  0  0  0  0  0  0  0  0
   -1.4950   17.9400   -6.0780 P   0  0  0  0  0  0  0  0  0  0  0  0
    0.1170   17.9390   -6.1300 O   0  0  0  0  0  0  0  0  0  0  0  0
   -2.4600   18.0170   -7.1420 O   0  0  0  0  0  0  0  0  0  0  0  0
   -1.5790   18.4770   -4.6070 O   0  0  0  0  0  0  0  0  0  0  0  0
   -2.4490   16.9590   -5.2670 O   0  0  0  0  0  0  0  0  0  0  0  0
  1  2  1  0
  2  3  1  0
  2  4  2  0
  2  5  1  0
  3  6  1  0
  6  7  1  0
  6  8  2  0
  6  9  1  0
  6 10  1  0
M  END
>  <%Rank>  (858) 
65.419847

>  <N_hits>  (858) 
2

>  <submitter_name>  (858) 
nan

>  <original SMILES>  (858) 
nan

>  <∆G_unbound>  (858) 
0.726258

>  <∆G_bound>  (858) 
-5.71364

>  <regarded>  (858) 
mArh-5cb5_I_0_I_β,5CMS_0_E_β

>  <ref_pdb>  (858) 
nan

>  <smiles>  (858) 
O=P(O)(O)O[PH](=O)(O)(O)O

>  <submitter_email>  (858) 
nan

>  <disregarded>  (858) 


>  <LE>  (858) 
-0.64399

>  <submitter_institution>  (858) 
nan

>  <ref_mols>  (858) 
mArh-5cb5_I_0_I,5CMS_0_E

>  <N_constrained_atoms>  (858) 
10.0

>  <ref_url>  (858) 
nan

>  <method>  (858) 
nan

>  <comRMSD>  (858) 
0.950804

>  <N_unconstrained_atoms>  (858) 
0.0

>  <∆∆G>  (858) 
-6.439898

>  <runtime>  (858) 
25.177923

>  <generation_date>  (858) 
nan

$$$$
mArh-x0371_0_A_β-5DUS_0_A_δ
     RDKit          3D

 18 21  0  0  0  0  0  0  0  0999 V2000
   -8.9440   14.1860    1.0070 C   0  0  0  0  0  0  0  0  0  0  0  0
   -7.6100   14.4160    0.4240 C   0  0  0  0  0  0  0  0  0  0  0  0
   -6.5820   14.8110    1.2050 N   0  0  0  0  0  0  0  0  0  0  0  0
   -7.2300   14.2880   -0.8400 N   0  0  0  0  0  0  0  0  0  0  0  0
   -5.4880   14.9510    0.4200 C   0  0  0  0  0  0  0  0  0  0  0  0
   -5.8900   14.6120   -0.8660 C   0  0  0  0  0  0  0  0  0  0  0  0
   -4.2330   15.3330    0.7430 C   0  0  0  0  0  0  0  0  0  0  0  0
   -4.9520   14.6330   -1.9390 C   0  0  0  0  0  0  0  0  0  0  0  0
   -3.3640   15.3360   -0.3000 C   0  0  0  0  0  0  0  0  0  0  0  0
   -3.6490   14.9980   -1.6000 C   0  0  0  0  0  0  0  0  0  0  0  0
   -2.4760   15.0740   -2.4160 N   0  0  0  0  0  0  0  0  0  0  0  0
   -1.9820   15.6890   -0.1810 C   0  0  2  0  0  0  0  0  0  0  0  0
   -1.3910   15.0020   -1.3910 C   0  0  1  0  0  0  0  0  0  0  0  0
   -1.6040   15.2360    1.1970 C   0  0  1  0  0  0  0  0  0  0  0  0
   -2.6790   14.9170    2.1130 N   0  0  0  0  0  0  0  0  0  0  0  0
   -0.6610   13.8150   -1.0170 N   0  0  0  0  0  0  0  0  0  0  0  0
   -0.7300   14.1320    1.2940 N   0  0  0  0  0  0  0  0  0  0  0  0
    0.1270   14.0530    0.1600 C   0  0  0  0  0  0  0  0  0  0  0  0
  1  2  1  0
  2  3  1  0
  2  4  2  0
  3  5  1  0
  4  6  1  0
  5  6  2  0
  5  7  1  0
  6  8  1  0
  7  9  2  0
  8 10  2  0
  9 10  1  0
 10 11  1  0
 12  9  1  6
 13 11  1  6
 12 13  1  0
 12 14  1  0
 14 15  1  1
 13 16  1  0
 14 17  1  0
 16 18  1  0
 17 18  1  0
M  END
>  <%Rank>  (859) 
65.496183

>  <N_hits>  (859) 
2

>  <submitter_name>  (859) 
nan

>  <original SMILES>  (859) 
nan

>  <∆G_unbound>  (859) 
0.596267

>  <∆G_bound>  (859) 
0.393581

>  <regarded>  (859) 
mArh-x0371_0_A_β,5DUS_0_A_δ

>  <ref_pdb>  (859) 
nan

>  <smiles>  (859) 
Cc1nc2cc3c(cc2[nH]1)C1C(N)NCNC1N3

>  <submitter_email>  (859) 
nan

>  <disregarded>  (859) 


>  <LE>  (859) 
-0.01126

>  <submitter_institution>  (859) 
nan

>  <ref_mols>  (859) 
mArh-x0371_0_A,5DUS_0_A

>  <N_constrained_atoms>  (859) 
18.0

>  <ref_url>  (859) 
nan

>  <method>  (859) 
nan

>  <comRMSD>  (859) 
0.845377

>  <N_unconstrained_atoms>  (859) 
0.0

>  <∆∆G>  (859) 
-0.202686

>  <runtime>  (859) 
31.630334

>  <generation_date>  (859) 
nan

$$$$
mArh-x0591_0_A_α-5CB5_0_Q_α
     RDKit          3D

 27 28  0  0  0  0  0  0  0  0999 V2000
   -5.8280   14.5470    0.9080 N   0  0  0  0  0  0  0  0  0  0  0  0
   -6.7800   14.5070    1.9940 C   0  0  0  0  0  0  0  0  0  0  0  0
   -6.2690   14.7090   -0.3840 C   0  0  0  0  0  0  0  0  0  0  0  0
   -7.4520   14.8310   -0.6750 O   0  0  0  0  0  0  0  0  0  0  0  0
   -5.2370   14.7360   -1.4550 C   0  0  0  0  0  0  0  0  0  0  0  0
   -3.8620   14.6650   -1.1960 C   0  0  0  0  0  0  0  0  0  0  0  0
   -5.6810   14.8370   -2.7750 C   0  0  0  0  0  0  0  0  0  0  0  0
   -2.9460   14.7000   -2.2530 C   0  0  0  0  0  0  0  0  0  0  0  0
   -4.7700   14.8660   -3.8250 C   0  0  0  0  0  0  0  0  0  0  0  0
   -3.4110   14.8030   -3.5670 C   0  0  0  0  0  0  0  0  0  0  0  0
   -2.2960   14.8580   -4.9300 S   0  0  1  0  0  0  0  0  0  0  0  0
   -0.7760   15.2390   -4.3500 N   0  0  0  0  0  0  0  0  0  0  0  0
   -2.0890   13.5210   -5.4350 O   0  0  0  0  0  0  0  0  0  0  0  0
   -2.5370   16.1470   -5.7280 N   0  0  0  0  0  0  0  0  0  0  0  0
   -1.7450   17.3500   -5.3540 C   0  0  0  0  0  0  0  0  0  0  0  0
   -1.7850   18.4870   -6.3820 C   0  0  0  0  0  0  0  0  0  0  0  0
   -2.4200   19.7980   -5.8790 C   0  0  0  0  0  0  0  0  0  0  0  0
   -3.6120   20.0950   -6.7850 C   0  0  0  0  0  0  0  0  0  0  0  0
   -4.6800   20.9040   -6.2680 O   0  0  0  0  0  0  0  0  0  0  0  0
   -5.1240   21.7320   -7.3350 C   0  0  2  0  0  0  0  0  0  0  0  0
   -4.5530   21.2290   -8.5560 O   0  0  0  0  0  0  0  0  0  0  0  0
   -4.5700   23.1500   -7.1410 C   0  0  2  0  0  0  0  0  0  0  0  0
   -5.6320   24.0870   -6.8560 O   0  0  0  0  0  0  0  0  0  0  0  0
   -3.4980   22.1070   -8.9660 C   0  0  1  0  0  0  0  0  0  0  0  0
   -3.9370   23.4740   -8.4990 C   0  0  1  0  0  0  0  0  0  0  0  0
   -2.1450   21.7090   -8.3790 C   0  0  0  0  0  0  0  0  0  0  0  0
   -4.8450   24.0630   -9.4250 O   0  0  0  0  0  0  0  0  0  0  0  0
  1  2  1  0
  1  3  1  0
  3  4  2  0
  3  5  1  0
  5  6  2  0
  5  7  1  0
  6  8  1  0
  7  9  2  0
  8 10  2  0
  9 10  1  0
 10 11  1  0
 11 12  1  1
 11 13  2  0
 11 14  2  0
 14 15  1  0
 15 16  1  0
 16 17  1  0
 17 18  1  0
 18 19  1  0
 20 19  1  1
 20 21  1  0
 20 22  1  0
 22 23  1  6
 21 24  1  0
 22 25  1  0
 24 25  1  0
 24 26  1  1
 25 27  1  6
M  END
>  <%Rank>  (860) 
65.572519

>  <N_hits>  (860) 
2

>  <submitter_name>  (860) 
nan

>  <original SMILES>  (860) 
nan

>  <∆G_unbound>  (860) 
0.071881

>  <∆G_bound>  (860) 
-11.52664

>  <regarded>  (860) 
mArh-x0591_0_A_α,5CB5_0_Q_α

>  <ref_pdb>  (860) 
nan

>  <smiles>  (860) 
CNC(=O)c1ccc(S(N)(=O)=NCCCCOC2OC(C)C(O)C2O)cc1

>  <submitter_email>  (860) 
nan

>  <disregarded>  (860) 


>  <LE>  (860) 
-0.429575

>  <submitter_institution>  (860) 
nan

>  <ref_mols>  (860) 
mArh-x0591_0_A,5CB5_0_Q

>  <N_constrained_atoms>  (860) 
23.0

>  <ref_url>  (860) 
nan

>  <method>  (860) 
nan

>  <comRMSD>  (860) 
1.061623

>  <N_unconstrained_atoms>  (860) 
4.0

>  <∆∆G>  (860) 
-11.598521

>  <runtime>  (860) 
53.897527

>  <generation_date>  (860) 
nan

$$$$
mArh-5lw0_B_1_B_β-mArh-5cms_M_12_M_γ
     RDKit          3D

 16 16  0  0  0  0  0  0  0  0999 V2000
   -1.6710   20.3060   -8.3940 O   0  0  0  0  0  0  0  0  0  0  0  0
   -0.5000   19.5270   -7.6630 P   0  0  0  0  0  0  0  0  0  0  0  0
   -1.1300   19.0520   -6.2770 O   0  0  0  0  0  0  0  0  0  0  0  0
    0.7560   20.2890   -7.6200 O   0  0  0  0  0  0  0  0  0  0  0  0
   -0.3840   18.2720   -8.6010 O   0  0  0  0  0  0  0  0  0  0  0  0
   -1.6650   17.5960   -5.9600 P   0  0  2  0  0  0  0  0  0  0  0  0
   -0.3970   16.6620   -5.6270 O   0  0  0  0  0  0  0  0  0  0  0  0
   -2.7100   17.0660   -6.8580 O   0  0  0  0  0  0  0  0  0  0  0  0
   -2.2680   17.7010   -4.5100 O   0  0  0  0  0  0  0  0  0  0  0  0
   -0.6780   15.5500   -4.8050 C   0  0  2  0  0  0  0  0  0  0  0  0
   -0.1840   15.6090   -3.4630 O   0  0  0  0  0  0  0  0  0  0  0  0
   -0.2090   14.1710   -5.2540 C   0  0  1  0  0  0  0  0  0  0  0  0
    1.1830   13.8650   -5.0460 O   0  0  0  0  0  0  0  0  0  0  0  0
   -0.5230   14.2990   -2.9550 C   0  0  0  0  0  0  0  0  0  0  0  0
   -0.9750   13.4750   -4.1670 C   0  0  2  0  0  0  0  0  0  0  0  0
   -0.6500   12.1020   -4.1100 O   0  0  0  0  0  0  0  0  0  0  0  0
  1  2  1  0
  2  3  1  0
  2  4  2  0
  2  5  1  0
  3  6  1  0
  6  7  1  0
  6  8  2  0
  6  9  1  1
 10  7  1  6
 10 11  1  0
 10 12  1  0
 12 13  1  1
 11 14  1  0
 12 15  1  0
 14 15  1  0
 15 16  1  1
M  END
>  <%Rank>  (861) 
65.648855

>  <N_hits>  (861) 
2

>  <submitter_name>  (861) 
nan

>  <original SMILES>  (861) 
nan

>  <∆G_unbound>  (861) 
1.157846

>  <∆G_bound>  (861) 
-6.190144

>  <regarded>  (861) 
mArh-5lw0_B_1_B_β,mArh-5cms_M_12_M_γ

>  <ref_pdb>  (861) 
nan

>  <smiles>  (861) 
O=P(O)(O)OP(=O)(O)OC1OCC(O)C1O

>  <submitter_email>  (861) 
nan

>  <disregarded>  (861) 


>  <LE>  (861) 
-0.459249

>  <submitter_institution>  (861) 
nan

>  <ref_mols>  (861) 
mArh-5lw0_B_1_B,mArh-5cms_M_12_M

>  <N_constrained_atoms>  (861) 
16.0

>  <ref_url>  (861) 
nan

>  <method>  (861) 
nan

>  <comRMSD>  (861) 
1.031272

>  <N_unconstrained_atoms>  (861) 
0.0

>  <∆∆G>  (861) 
-7.34799

>  <runtime>  (861) 
31.859498

>  <generation_date>  (861) 
nan

$$$$
mArh-5cms_I_8_I_β-mArh-5cms_D_3_D_α
     RDKit          3D

 10  9  0  0  0  0  0  0  0  0999 V2000
    0.5300   21.0550   -8.1450 O   0  0  0  0  0  0  0  0  0  0  0  0
   -0.3660   19.7880   -7.8900 P   0  0  0  0  0  0  0  0  0  0  0  0
   -1.5570   19.5360   -6.8020 O   0  0  0  0  0  0  0  0  0  0  0  0
    0.2760   19.5910   -6.6370 O   0  0  0  0  0  0  0  0  0  0  0  0
   -0.9000   18.6610   -8.8350 O   0  0  0  0  0  0  0  0  0  0  0  0
   -1.4030   20.8510   -8.4200 O   0  0  0  0  0  0  0  0  0  0  0  0
   -1.6480   18.0460   -6.0990 P   0  0  0  0  0  0  0  0  0  0  0  0
   -0.1700   17.2660   -6.2710 O   0  0  0  0  0  0  0  0  0  0  0  0
   -2.7020   17.2510   -6.8400 O   0  0  0  0  0  0  0  0  0  0  0  0
   -2.0090   18.0930   -4.5110 O   0  0  0  0  0  0  0  0  0  0  0  0
  1  2  1  0
  2  3  1  0
  2  4  2  0
  2  5  1  0
  2  6  1  0
  3  7  1  0
  7  8  1  0
  7  9  2  0
  7 10  1  0
M  END
>  <%Rank>  (862) 
65.725191

>  <N_hits>  (862) 
2

>  <submitter_name>  (862) 
nan

>  <original SMILES>  (862) 
nan

>  <∆G_unbound>  (862) 
0.526845

>  <∆G_bound>  (862) 
-3.669473

>  <regarded>  (862) 
mArh-5cms_I_8_I_β,mArh-5cms_D_3_D_α

>  <ref_pdb>  (862) 
nan

>  <smiles>  (862) 
O=P(O)(O)O[PH](=O)(O)(O)O

>  <submitter_email>  (862) 
nan

>  <disregarded>  (862) 


>  <LE>  (862) 
-0.419632

>  <submitter_institution>  (862) 
nan

>  <ref_mols>  (862) 
mArh-5cms_I_8_I,mArh-5cms_D_3_D

>  <N_constrained_atoms>  (862) 
10.0

>  <ref_url>  (862) 
nan

>  <method>  (862) 
nan

>  <comRMSD>  (862) 
0.844995

>  <N_unconstrained_atoms>  (862) 
0.0

>  <∆∆G>  (862) 
-4.196318

>  <runtime>  (862) 
24.054589

>  <generation_date>  (862) 
nan

$$$$
mArh-5lw0_A_0_A_α-mArh-x0587_0_A_α
     RDKit          3D

 27 28  0  0  0  0  0  0  0  0999 V2000
   -2.2930   21.4630   -8.2440 C   0  0  0  0  0  0  0  0  0  0  0  0
   -3.6610   21.5580   -8.8960 C   0  0  1  0  0  0  0  0  0  0  0  0
   -4.5630   20.5990   -8.3430 O   0  0  0  0  0  0  0  0  0  0  0  0
   -4.4060   22.8240   -8.6640 C   0  0  1  0  0  0  0  0  0  0  0  0
   -5.4870   22.9190   -9.6000 O   0  0  0  0  0  0  0  0  0  0  0  0
   -4.9870   21.0710   -7.0930 C   0  0  2  0  0  0  0  0  0  0  0  0
   -4.8960   22.6060   -7.2270 C   0  0  2  0  0  0  0  0  0  0  0  0
   -4.1220   20.5180   -6.0680 O   0  0  0  0  0  0  0  0  0  0  0  0
   -6.1930   23.2000   -7.1580 O   0  0  0  0  0  0  0  0  0  0  0  0
   -2.9920   19.7380   -6.6010 C   0  0  0  0  0  0  0  0  0  0  0  0
   -2.1460   18.9300   -5.5680 C   0  0  0  0  0  0  0  0  0  0  0  0
   -2.3480   17.3630   -5.5490 C   0  0  0  0  0  0  0  0  0  0  0  0
   -2.2860   16.5280   -4.2130 C   0  0  0  0  0  0  0  0  0  0  0  0
   -3.4310   15.4950   -3.9090 C   0  0  0  0  0  0  0  0  0  0  0  0
   -4.2320   15.7020   -2.6950 O   0  0  0  0  0  0  0  0  0  0  0  0
   -4.1760   14.6560   -1.6720 C   0  0  0  0  0  0  0  0  0  0  0  0
   -2.9260   14.6890   -1.1310 F   0  0  0  0  0  0  0  0  0  0  0  0
   -4.2090   13.4730   -2.3540 F   0  0  0  0  0  0  0  0  0  0  0  0
   -5.2780   14.6840   -0.5590 C   0  0  0  0  0  0  0  0  0  0  0  0
   -4.9240   15.0060    0.6870 N   0  0  0  0  0  0  0  0  0  0  0  0
   -6.5570   14.3790   -0.8190 N   0  0  0  0  0  0  0  0  0  0  0  0
   -5.8720   15.0240    1.6590 C   0  0  0  0  0  0  0  0  0  0  0  0
   -7.4690   14.4150    0.1960 C   0  0  0  0  0  0  0  0  0  0  0  0
   -7.1860   14.7390    1.4820 C   0  0  0  0  0  0  0  0  0  0  0  0
   -8.1500   14.8110    2.6060 C   0  0  0  0  0  0  0  0  0  0  0  0
   -7.6760   14.8150    3.8880 N   0  0  0  0  0  0  0  0  0  0  0  0
   -9.3580   14.8850    2.3940 O   0  0  0  0  0  0  0  0  0  0  0  0
  2  1  1  1
  2  3  1  0
  2  4  1  0
  4  5  1  6
  3  6  1  0
  4  7  1  0
  6  7  1  0
  6  8  1  1
  7  9  1  6
  8 10  1  0
 10 11  1  0
 11 12  1  0
 12 13  1  0
 13 14  1  0
 14 15  1  0
 15 16  1  0
 16 17  1  0
 16 18  1  0
 16 19  1  0
 19 20  2  0
 19 21  1  0
 20 22  1  0
 21 23  2  0
 22 24  2  0
 23 24  1  0
 24 25  1  0
 25 26  1  0
 25 27  2  0
M  END
>  <%Rank>  (863) 
65.801527

>  <N_hits>  (863) 
2

>  <submitter_name>  (863) 
nan

>  <original SMILES>  (863) 
nan

>  <∆G_unbound>  (863) 
0.615232

>  <∆G_bound>  (863) 
-3.254253

>  <regarded>  (863) 
mArh-5lw0_A_0_A_α,mArh-x0587_0_A_α

>  <ref_pdb>  (863) 
nan

>  <smiles>  (863) 
CC1OC(OCCCCCOC(F)(F)c2ncc(C(N)=O)cn2)C(O)C1O

>  <submitter_email>  (863) 
nan

>  <disregarded>  (863) 


>  <LE>  (863) 
-0.143314

>  <submitter_institution>  (863) 
nan

>  <ref_mols>  (863) 
mArh-5lw0_A_0_A,mArh-x0587_0_A

>  <N_constrained_atoms>  (863) 
22.0

>  <ref_url>  (863) 
nan

>  <method>  (863) 
nan

>  <comRMSD>  (863) 
0.87993

>  <N_unconstrained_atoms>  (863) 
5.0

>  <∆∆G>  (863) 
-3.869485

>  <runtime>  (863) 
74.726958

>  <generation_date>  (863) 
nan

$$$$
5CB5_0_M_β-mArh-6fx_7_0A_α
     RDKit          3D

 17 17  0  0  0  0  0  0  0  0999 V2000
   -1.7490   21.7250   -7.8400 O   0  0  0  0  0  0  0  0  0  0  0  0
   -0.5870   20.4420   -7.9460 P   0  0  0  0  0  0  0  0  0  0  0  0
   -0.4570   19.4840   -6.6070 O   0  0  0  0  0  0  0  0  0  0  0  0
   -2.8780   21.8760   -8.6800 C   0  0  2  0  0  0  0  0  0  0  0  0
   -1.4010   19.3520   -8.5270 O   0  0  0  0  0  0  0  0  0  0  0  0
    0.4320   21.4630   -7.4740 O   0  0  0  0  0  0  0  0  0  0  0  0
   -2.9110   22.9240   -9.5130 O   0  0  0  0  0  0  0  0  0  0  0  0
   -4.1190   22.4360   -7.9400 C   0  0  2  0  0  0  0  0  0  0  0  0
   -1.3770   18.3340   -6.0560 P   0  0  0  0  0  0  0  0  0  0  0  0
   -4.5860   21.5320   -7.0270 O   0  0  0  0  0  0  0  0  0  0  0  0
   -4.0580   22.7310  -10.2220 C   0  0  1  0  0  0  0  0  0  0  0  0
   -5.0770   22.5560   -9.1530 C   0  0  2  0  0  0  0  0  0  0  0  0
   -2.0990   17.0770   -5.5470 O   0  0  0  0  0  0  0  0  0  0  0  0
   -2.3770   18.3730   -7.3350 O   0  0  0  0  0  0  0  0  0  0  0  0
   -1.8730   19.2130   -4.7620 O   0  0  0  0  0  0  0  0  0  0  0  0
   -4.4340   23.7030  -11.1350 O   0  0  0  0  0  0  0  0  0  0  0  0
   -5.8150   23.7430   -8.9990 O   0  0  0  0  0  0  0  0  0  0  0  0
  1  2  1  0
  2  3  1  0
  4  1  1  1
  2  5  1  0
  2  6  1  0
  4  7  1  0
  4  8  1  0
  3  9  1  0
  8 10  1  1
  7 11  1  0
  8 12  1  0
 11 12  1  0
  9 13  1  0
  9 14  1  0
  9 15  1  0
 11 16  1  1
 12 17  1  1
M  CHG  2   5  -1  14  -1
M  END
>  <%Rank>  (864) 
65.877863

>  <N_hits>  (864) 
2

>  <submitter_name>  (864) 
nan

>  <original SMILES>  (864) 
nan

>  <∆G_unbound>  (864) 
0.972863

>  <∆G_bound>  (864) 
-3.99136

>  <regarded>  (864) 
5CB5_0_M_β,mArh-6fx_7_0A_α

>  <ref_pdb>  (864) 
nan

>  <smiles>  (864) 
[O-][PH](O)(O)O[PH]([O-])(O)OC1OC(O)C(O)C1O

>  <submitter_email>  (864) 
nan

>  <disregarded>  (864) 


>  <LE>  (864) 
-0.292013

>  <submitter_institution>  (864) 
nan

>  <ref_mols>  (864) 
5CB5_0_M,mArh-6fx_7_0A

>  <N_constrained_atoms>  (864) 
17.0

>  <ref_url>  (864) 
nan

>  <method>  (864) 
nan

>  <comRMSD>  (864) 
0.971707

>  <N_unconstrained_atoms>  (864) 
0.0

>  <∆∆G>  (864) 
-4.964223

>  <runtime>  (864) 
37.856057

>  <generation_date>  (864) 
nan

$$$$
mArh-x0681_0_A_α-mArh-5cb5_B_0_B_α
     RDKit          3D

 27 29  0  0  0  0  0  0  0  0999 V2000
   -4.6350   14.0750   -3.6430 N   0  0  0  0  0  0  0  0  0  0  0  0
   -3.6280   14.5380   -2.7230 C   0  0  1  0  0  0  0  0  0  0  0  0
   -2.6860   13.4860   -2.6270 O   0  0  0  0  0  0  0  0  0  0  0  0
   -2.8260   15.6840   -3.4020 C   0  0  0  0  0  0  0  0  0  0  0  0
   -4.3030   14.6940   -1.2840 C   0  0  1  0  0  0  0  0  0  0  0  0
   -2.7950   16.1170   -4.9220 C   0  0  0  0  0  0  0  0  0  0  0  0
   -5.0390   13.4550   -0.8460 C   0  0  0  0  0  0  0  0  0  0  0  0
   -3.5360   15.3290   -0.0800 C   0  0  0  0  0  0  0  0  0  0  0  0
   -1.9440   17.4240   -5.2360 C   0  0  0  0  0  0  0  0  0  0  0  0
   -5.6440   13.4240    0.3530 N   0  0  0  0  0  0  0  0  0  0  0  0
   -4.1350   15.0230    1.3140 C   0  0  0  0  0  0  0  0  0  0  0  0
   -5.2090   12.3220   -1.4870 N   0  0  0  0  0  0  0  0  0  0  0  0
   -2.4050   18.5400   -6.2580 C   0  0  0  0  0  0  0  0  0  0  0  0
   -5.5890   14.5420    1.2240 C   0  0  0  0  0  0  0  0  0  0  0  0
   -6.2490   12.2190    0.5230 C   0  0  0  0  0  0  0  0  0  0  0  0
   -5.9660   11.5460   -0.6420 C   0  0  0  0  0  0  0  0  0  0  0  0
   -2.4630   20.0460   -5.7520 C   0  0  0  0  0  0  0  0  0  0  0  0
   -3.8530   20.7240   -5.6020 C   0  0  0  0  0  0  0  0  0  0  0  0
   -4.0020   22.0760   -5.9460 O   0  0  0  0  0  0  0  0  0  0  0  0
   -4.8150   22.2080   -7.0950 C   0  0  2  0  0  0  0  0  0  0  0  0
   -4.2650   21.3530   -8.0770 O   0  0  0  0  0  0  0  0  0  0  0  0
   -4.5500   23.6410   -7.5860 C   0  0  2  0  0  0  0  0  0  0  0  0
   -5.7110   24.2370   -8.1950 O   0  0  0  0  0  0  0  0  0  0  0  0
   -3.0310   22.0230   -8.1410 C   0  0  2  0  0  0  0  0  0  0  0  0
   -3.5060   23.3660   -8.6710 C   0  0  1  0  0  0  0  0  0  0  0  0
   -1.9840   21.2120   -8.8320 C   0  0  0  0  0  0  0  0  0  0  0  0
   -4.1330   23.3280   -9.9510 O   0  0  0  0  0  0  0  0  0  0  0  0
  2  1  1  6
  2  3  1  0
  2  4  1  0
  2  5  1  0
  4  6  1  0
  5  7  1  0
  5  8  1  1
  6  9  1  0
  7 10  1  0
  8 11  1  0
  7 12  2  0
  9 13  1  0
 10 14  1  0
 11 14  1  0
 10 15  1  0
 12 16  1  0
 15 16  2  0
 13 17  1  0
 17 18  1  0
 18 19  1  0
 20 19  1  1
 20 21  1  0
 20 22  1  0
 22 23  1  6
 21 24  1  0
 22 25  1  0
 24 25  1  0
 24 26  1  6
 25 27  1  6
M  END
>  <%Rank>  (865) 
65.954198

>  <N_hits>  (865) 
2

>  <submitter_name>  (865) 
nan

>  <original SMILES>  (865) 
nan

>  <∆G_unbound>  (865) 
0.552886

>  <∆G_bound>  (865) 
-7.887895

>  <regarded>  (865) 
mArh-x0681_0_A_α,mArh-5cb5_B_0_B_α

>  <ref_pdb>  (865) 
nan

>  <smiles>  (865) 
CC1OC(OCCCCCCC(N)(O)C2CCCn3ccnc32)C(O)C1O

>  <submitter_email>  (865) 
nan

>  <disregarded>  (865) 


>  <LE>  (865) 
-0.312622

>  <submitter_institution>  (865) 
nan

>  <ref_mols>  (865) 
mArh-x0681_0_A,mArh-5cb5_B_0_B

>  <N_constrained_atoms>  (865) 
21.0

>  <ref_url>  (865) 
nan

>  <method>  (865) 
nan

>  <comRMSD>  (865) 
0.918277

>  <N_unconstrained_atoms>  (865) 
6.0

>  <∆∆G>  (865) 
-8.440781

>  <runtime>  (865) 
44.842059

>  <generation_date>  (865) 
nan

$$$$
mArh-6woj_A_0_A_α-mArh-5cms_J_9_J_γ
     RDKit          3D

 22 23  0  0  0  0  0  0  0  0999 V2000
   -3.0030   21.7440   -9.1250 C   0  0  0  0  0  0  0  0  0  0  0  0
   -2.6990   22.8180   -8.1440 C   0  0  2  0  0  0  0  0  0  0  0  0
   -2.6140   22.1420   -6.9100 O   0  0  0  0  0  0  0  0  0  0  0  0
   -3.8190   23.8250   -7.9760 C   0  0  1  0  0  0  0  0  0  0  0  0
   -4.4760   24.0760   -9.2220 O   0  0  0  0  0  0  0  0  0  0  0  0
   -3.8370   22.2900   -6.2070 C   0  0  1  0  0  0  0  0  0  0  0  0
   -4.7910   23.1420   -7.0360 C   0  0  1  0  0  0  0  0  0  0  0  0
   -4.2280   20.9750   -5.9260 O   0  0  0  0  0  0  0  0  0  0  0  0
   -5.4660   24.1110   -6.2070 O   0  0  0  0  0  0  0  0  0  0  0  0
   -2.9410   20.3700   -5.6970 C   0  0  0  0  0  0  0  0  0  0  0  0
   -2.2800   19.6760   -6.8810 C   0  0  0  0  0  0  0  0  0  0  0  0
   -0.7810   19.6530   -6.6310 C   0  0  0  0  0  0  0  0  0  0  0  0
   -0.0700   18.4090   -7.1020 C   0  0  0  0  0  0  0  0  0  0  0  0
    0.6950   17.7070   -5.9630 C   0  0  0  0  0  0  0  0  0  0  0  0
   -0.1880   16.7470   -5.1680 C   0  0  0  0  0  0  0  0  0  0  0  0
    0.5320   15.5290   -4.5530 C   0  0  1  0  0  0  0  0  0  0  0  0
    0.0410   15.4330   -3.1920 O   0  0  0  0  0  0  0  0  0  0  0  0
    0.1990   14.1470   -5.1290 C   0  0  1  0  0  0  0  0  0  0  0  0
    1.0260   13.0660   -4.7220 O   0  0  0  0  0  0  0  0  0  0  0  0
   -1.0040   14.4400   -3.1620 C   0  0  0  0  0  0  0  0  0  0  0  0
   -1.2000   13.9630   -4.5920 C   0  0  2  0  0  0  0  0  0  0  0  0
   -1.5980   12.6090   -4.7200 O   0  0  0  0  0  0  0  0  0  0  0  0
  2  1  1  6
  2  3  1  0
  2  4  1  0
  4  5  1  6
  3  6  1  0
  4  7  1  0
  6  7  1  0
  6  8  1  6
  7  9  1  1
  8 10  1  0
 10 11  1  0
 11 12  1  0
 12 13  1  0
 13 14  1  0
 14 15  1  0
 16 15  1  6
 16 17  1  0
 16 18  1  0
 18 19  1  1
 17 20  1  0
 18 21  1  0
 20 21  1  0
 21 22  1  1
M  END
>  <%Rank>  (866) 
66.030534

>  <N_hits>  (866) 
2

>  <submitter_name>  (866) 
nan

>  <original SMILES>  (866) 
nan

>  <∆G_unbound>  (866) 
0.187336

>  <∆G_bound>  (866) 
-11.523087

>  <regarded>  (866) 
mArh-6woj_A_0_A_α,mArh-5cms_J_9_J_γ

>  <ref_pdb>  (866) 
nan

>  <smiles>  (866) 
CC1OC(OCCCCCCC2OCC(O)C2O)C(O)C1O

>  <submitter_email>  (866) 
nan

>  <disregarded>  (866) 


>  <LE>  (866) 
-0.532292

>  <submitter_institution>  (866) 
nan

>  <ref_mols>  (866) 
mArh-6woj_A_0_A,mArh-5cms_J_9_J

>  <N_constrained_atoms>  (866) 
17.0

>  <ref_url>  (866) 
nan

>  <method>  (866) 
nan

>  <comRMSD>  (866) 
0.944888

>  <N_unconstrained_atoms>  (866) 
5.0

>  <∆∆G>  (866) 
-11.710422

>  <runtime>  (866) 
36.67804

>  <generation_date>  (866) 
nan

$$$$
5CB5_0_O_β-mArh-2fav_B_0_B_α
     RDKit          3D

 16 16  0  0  0  0  0  0  0  0999 V2000
   -1.7050   21.4270   -8.5970 O   0  0  0  0  0  0  0  0  0  0  0  0
   -0.9120   20.0960   -7.9180 P   0  0  0  0  0  0  0  0  0  0  0  0
   -0.9840   19.7250   -6.4110 O   0  0  0  0  0  0  0  0  0  0  0  0
   -3.0300   21.7000   -8.2380 C   0  0  1  0  0  0  0  0  0  0  0  0
   -0.0620   18.9900   -8.8850 O   0  0  0  0  0  0  0  0  0  0  0  0
    0.4430   20.7340   -7.8850 O   0  0  0  0  0  0  0  0  0  0  0  0
   -3.4010   20.9870   -7.1140 O   0  0  0  0  0  0  0  0  0  0  0  0
   -3.4600   23.1380   -7.9800 C   0  0  1  0  0  0  0  0  0  0  0  0
   -1.8110   18.3980   -5.9520 P   0  0  0  0  0  0  0  0  0  0  0  0
   -3.9890   23.7990   -9.1180 O   0  0  0  0  0  0  0  0  0  0  0  0
   -4.3160   21.6960   -6.3800 C   0  0  0  0  0  0  0  0  0  0  0  0
   -4.6740   22.9130   -7.1240 C   0  0  1  0  0  0  0  0  0  0  0  0
   -0.5930   17.4830   -6.1330 O   0  0  0  0  0  0  0  0  0  0  0  0
   -2.5680   17.4580   -7.0950 O   0  0  0  0  0  0  0  0  0  0  0  0
   -2.0620   18.0130   -4.4710 O   0  0  0  0  0  0  0  0  0  0  0  0
   -4.9790   23.9780   -6.2600 O   0  0  0  0  0  0  0  0  0  0  0  0
  1  2  1  0
  2  3  1  0
  4  1  1  1
  2  5  1  0
  2  6  1  0
  4  7  1  0
  4  8  1  0
  3  9  1  0
  8 10  1  6
  7 11  1  0
  8 12  1  0
 11 12  1  0
  9 13  1  0
  9 14  1  0
  9 15  1  0
 12 16  1  1
M  CHG  2   5  -1  14  -1
M  END
>  <%Rank>  (867) 
66.10687

>  <N_hits>  (867) 
2

>  <submitter_name>  (867) 
nan

>  <original SMILES>  (867) 
nan

>  <∆G_unbound>  (867) 
0.952308

>  <∆G_bound>  (867) 
-8.000402

>  <regarded>  (867) 
5CB5_0_O_β,mArh-2fav_B_0_B_α

>  <ref_pdb>  (867) 
nan

>  <smiles>  (867) 
[O-][PH](O)(O)O[PH]([O-])(O)OC1OCC(O)C1O

>  <submitter_email>  (867) 
nan

>  <disregarded>  (867) 


>  <LE>  (867) 
-0.559544

>  <submitter_institution>  (867) 
nan

>  <ref_mols>  (867) 
5CB5_0_O,mArh-2fav_B_0_B

>  <N_constrained_atoms>  (867) 
16.0

>  <ref_url>  (867) 
nan

>  <method>  (867) 
nan

>  <comRMSD>  (867) 
1.08542

>  <N_unconstrained_atoms>  (867) 
0.0

>  <∆∆G>  (867) 
-8.95271

>  <runtime>  (867) 
29.54035

>  <generation_date>  (867) 
nan

$$$$
mArh-5cb5_F_1_F_α-6MEA_0_A_γ
     RDKit          3D

 25 26  0  0  0  0  0  0  0  0999 V2000
   -1.7480   21.3840   -8.8330 C   0  0  0  0  0  0  0  0  0  0  0  0
   -3.1040   21.9090   -9.2930 C   0  0  2  0  0  0  0  0  0  0  0  0
   -3.4590   23.2860   -8.7430 C   0  0  1  0  0  0  0  0  0  0  0  0
   -4.0140   21.1300   -8.5970 O   0  0  0  0  0  0  0  0  0  0  0  0
   -4.5460   23.8450   -9.5200 O   0  0  0  0  0  0  0  0  0  0  0  0
   -3.8520   22.9000   -7.2940 C   0  0  2  0  0  0  0  0  0  0  0  0
   -3.4580   21.4560   -7.3570 C   0  0  1  0  0  0  0  0  0  0  0  0
   -5.2300   22.9680   -7.0700 O   0  0  0  0  0  0  0  0  0  0  0  0
   -3.8410   20.5490   -6.3590 O   0  0  0  0  0  0  0  0  0  0  0  0
   -5.6340   24.1990   -7.0880 C   0  0  0  0  0  0  0  0  0  0  0  0
   -2.9240   19.4510   -6.5300 C   0  0  0  0  0  0  0  0  0  0  0  0
   -4.6470   25.0690   -6.3460 C   0  0  0  0  0  0  0  0  0  0  0  0
   -6.6640   24.4780   -7.6410 O   0  0  0  0  0  0  0  0  0  0  0  0
   -2.0800   19.1630   -5.3190 C   0  0  0  0  0  0  0  0  0  0  0  0
   -0.6330   18.9950   -5.6700 C   0  0  0  0  0  0  0  0  0  0  0  0
   -0.2430   17.7360   -6.3490 C   0  0  0  0  0  0  0  0  0  0  0  0
    1.0810   17.2840   -5.7710 C   0  0  0  0  0  0  0  0  0  0  0  0
    0.9090   16.8110   -4.3410 C   0  0  0  0  0  0  0  0  0  0  0  0
   -0.1430   15.7240   -4.1610 C   0  0  2  0  0  0  0  0  0  0  0  0
   -0.1380   15.4060   -2.7640 O   0  0  0  0  0  0  0  0  0  0  0  0
    0.0320   14.3610   -4.8460 C   0  0  1  0  0  0  0  0  0  0  0  0
    1.3430   13.8570   -5.0360 O   0  0  0  0  0  0  0  0  0  0  0  0
   -0.9210   14.2240   -2.6380 C   0  0  0  0  0  0  0  0  0  0  0  0
   -0.7370   13.4240   -3.9190 C   0  0  1  0  0  0  0  0  0  0  0  0
   -1.9610   12.9930   -4.4860 O   0  0  0  0  0  0  0  0  0  0  0  0
  2  1  1  1
  2  3  1  0
  2  4  1  0
  3  5  1  6
  3  6  1  0
  4  7  1  0
  6  7  1  0
  6  8  1  6
  7  9  1  1
  8 10  1  0
  9 11  1  0
 10 12  1  0
 10 13  2  0
 11 14  1  0
 14 15  1  0
 15 16  1  0
 16 17  1  0
 17 18  1  0
 19 18  1  1
 19 20  1  0
 19 21  1  0
 21 22  1  1
 20 23  1  0
 21 24  1  0
 23 24  1  0
 24 25  1  6
M  END
>  <%Rank>  (868) 
66.183206

>  <N_hits>  (868) 
2

>  <submitter_name>  (868) 
nan

>  <original SMILES>  (868) 
nan

>  <∆G_unbound>  (868) 
0.771395

>  <∆G_bound>  (868) 
-6.53063

>  <regarded>  (868) 
mArh-5cb5_F_1_F_α,6MEA_0_A_γ

>  <ref_pdb>  (868) 
nan

>  <smiles>  (868) 
CC(=O)OC1C(OCCCCCCC2OCC(O)C2O)OC(C)C1O

>  <submitter_email>  (868) 
nan

>  <disregarded>  (868) 


>  <LE>  (868) 
-0.292081

>  <submitter_institution>  (868) 
nan

>  <ref_mols>  (868) 
mArh-5cb5_F_1_F,6MEA_0_A

>  <N_constrained_atoms>  (868) 
20.0

>  <ref_url>  (868) 
nan

>  <method>  (868) 
nan

>  <comRMSD>  (868) 
0.911336

>  <N_unconstrained_atoms>  (868) 
5.0

>  <∆∆G>  (868) 
-7.302024

>  <runtime>  (868) 
53.151947

>  <generation_date>  (868) 
nan

$$$$
mArh-5cms_D_3_D_γ-mArh-x0962_3_A_α
     RDKit          3D

 22 24  0  0  0  0  0  0  0  0999 V2000
   -4.4040   15.3280    1.6400 N   0  0  0  0  0  0  0  0  0  0  0  0
   -3.1440   15.5500    0.9680 C   0  0  2  0  0  0  0  0  0  0  0  0
   -3.1470   15.2000   -0.5230 C   0  0  1  0  0  0  0  0  0  0  0  0
   -2.0880   14.8050    1.6370 N   0  0  0  0  0  0  0  0  0  0  0  0
   -1.9110   14.3670   -0.8490 C   0  0  1  0  0  0  0  0  0  0  0  0
   -4.1280   14.3890   -1.1970 N   0  0  0  0  0  0  0  0  0  0  0  0
   -0.7670   15.1600    1.0950 C   0  0  0  0  0  0  0  0  0  0  0  0
   -2.0070   14.4750   -2.2910 N   0  0  0  0  0  0  0  0  0  0  0  0
   -3.4710   14.4650   -2.5210 C   0  0  0  0  0  0  0  0  0  0  0  0
   -0.6590   14.8350   -0.3040 N   0  0  0  0  0  0  0  0  0  0  0  0
   -1.2940   13.4190   -3.0030 C   0  0  0  0  0  0  0  0  0  0  0  0
    0.0590   13.8720   -3.5880 C   0  0  0  0  0  0  0  0  0  0  0  0
    0.9810   12.7380   -4.0630 C   0  0  0  0  0  0  0  0  0  0  0  0
    0.3550   11.8510   -5.1480 C   0  0  0  0  0  0  0  0  0  0  0  0
    1.0390   11.9450   -6.5200 C   0  0  0  0  0  0  0  0  0  0  0  0
    0.3740   11.2970   -7.7620 C   0  0  1  0  0  0  0  0  0  0  0  0
    1.1970   11.1770   -8.9280 N   0  0  0  0  0  0  0  0  0  0  0  0
   -0.2770   10.0020   -7.5520 C   0  0  0  0  0  0  0  0  0  0  0  0
    0.1290    8.8390   -8.1630 N   0  0  0  0  0  0  0  0  0  0  0  0
   -1.3490    9.6370   -6.7840 C   0  0  0  0  0  0  0  0  0  0  0  0
   -0.7020    7.8480   -7.7420 C   0  0  0  0  0  0  0  0  0  0  0  0
   -1.6080    8.3020   -6.9070 N   0  0  0  0  0  0  0  0  0  0  0  0
  2  1  1  1
  2  3  1  0
  2  4  1  0
  3  5  1  0
  3  6  1  1
  4  7  1  0
  5  8  1  0
  6  9  1  0
  8  9  1  0
  5 10  1  1
  7 10  1  0
  8 11  1  0
 11 12  1  0
 12 13  1  0
 13 14  1  0
 14 15  1  0
 15 16  1  0
 16 17  1  6
 16 18  1  0
 18 19  1  0
 18 20  2  0
 19 21  1  0
 20 22  1  0
 21 22  2  0
M  END
>  <%Rank>  (869) 
66.259542

>  <N_hits>  (869) 
2

>  <submitter_name>  (869) 
nan

>  <original SMILES>  (869) 
nan

>  <∆G_unbound>  (869) 
1.818798

>  <∆G_bound>  (869) 
-3.484478

>  <regarded>  (869) 
mArh-5cms_D_3_D_γ,mArh-x0962_3_A_α

>  <ref_pdb>  (869) 
nan

>  <smiles>  (869) 
NC(CCCCCN1CNC2C(N)NCNC21)c1cnc[nH]1

>  <submitter_email>  (869) 
nan

>  <disregarded>  (869) 


>  <LE>  (869) 
-0.241058

>  <submitter_institution>  (869) 
nan

>  <ref_mols>  (869) 
mArh-5cms_D_3_D,mArh-x0962_3_A

>  <N_constrained_atoms>  (869) 
17.0

>  <ref_url>  (869) 
nan

>  <method>  (869) 
nan

>  <comRMSD>  (869) 
0.803986

>  <N_unconstrained_atoms>  (869) 
5.0

>  <∆∆G>  (869) 
-5.303276

>  <runtime>  (869) 
28.60818

>  <generation_date>  (869) 
nan

$$$$
mArh-6fx_7_0A_α-5L9K_0_A_β
     RDKit          3D

 20 20  0  0  0  0  0  0  0  0999 V2000
   -1.8930   22.6070   -8.0650 C   0  0  0  0  0  0  0  0  0  0  0  0
   -3.2840   23.1140   -8.3530 C   0  0  1  0  0  0  0  0  0  0  0  0
   -3.3800   23.6340   -9.6540 O   0  0  0  0  0  0  0  0  0  0  0  0
   -4.3410   22.0210   -8.3880 C   0  0  1  0  0  0  0  0  0  0  0  0
   -4.7180   21.5130   -7.2230 O   0  0  0  0  0  0  0  0  0  0  0  0
   -4.3540   22.9620  -10.3230 C   0  0  1  0  0  0  0  0  0  0  0  0
   -5.3400   22.7390   -9.2380 C   0  0  1  0  0  0  0  0  0  0  0  0
   -4.8420   23.7040  -11.4000 O   0  0  0  0  0  0  0  0  0  0  0  0
   -6.4230   22.0000   -9.6050 O   0  0  0  0  0  0  0  0  0  0  0  0
   -3.8610   21.5810   -6.1660 C   0  0  0  0  0  0  0  0  0  0  0  0
   -2.7320   20.5420   -6.2850 C   0  0  0  0  0  0  0  0  0  0  0  0
   -2.3310   20.3550   -7.5910 O   0  0  0  0  0  0  0  0  0  0  0  0
   -0.9540   19.4130   -7.7020 P   0  0  0  0  0  0  0  0  0  0  0  0
   -0.9990   18.9580   -6.2510 O   0  0  0  0  0  0  0  0  0  0  0  0
   -0.8420   19.8200   -9.1420 O   0  0  0  0  0  0  0  0  0  0  0  0
    0.5050   20.1460   -7.4480 O   0  0  0  0  0  0  0  0  0  0  0  0
   -1.8690   17.8340   -5.7030 P   0  0  0  0  0  0  0  0  0  0  0  0
   -0.5780   16.7730   -5.6310 O   0  0  0  0  0  0  0  0  0  0  0  0
   -2.0990   18.8410   -4.4640 O   0  0  0  0  0  0  0  0  0  0  0  0
   -2.8590   17.7840   -6.9490 O   0  0  0  0  0  0  0  0  0  0  0  0
  2  1  1  6
  2  3  1  0
  2  4  1  0
  4  5  1  1
  3  6  1  0
  4  7  1  0
  6  7  1  0
  6  8  1  6
  7  9  1  6
  5 10  1  0
 10 11  1  0
 11 12  1  0
 12 13  1  0
 13 14  1  0
 13 15  1  0
 13 16  1  0
 14 17  1  0
 17 18  1  0
 17 19  1  0
 17 20  1  0
M  CHG  2  15  -1  19  -1
M  END
>  <%Rank>  (870) 
66.335878

>  <N_hits>  (870) 
2

>  <submitter_name>  (870) 
nan

>  <original SMILES>  (870) 
nan

>  <∆G_unbound>  (870) 
1.344851

>  <∆G_bound>  (870) 
-5.83358

>  <regarded>  (870) 
mArh-6fx_7_0A_α,5L9K_0_A_β

>  <ref_pdb>  (870) 
nan

>  <smiles>  (870) 
CC1OC(O)C(O)C1OCCO[PH]([O-])(O)O[PH]([O-])(O)O

>  <submitter_email>  (870) 
nan

>  <disregarded>  (870) 


>  <LE>  (870) 
-0.358922

>  <submitter_institution>  (870) 
nan

>  <ref_mols>  (870) 
mArh-6fx_7_0A,5L9K_0_A

>  <N_constrained_atoms>  (870) 
18.0

>  <ref_url>  (870) 
nan

>  <method>  (870) 
nan

>  <comRMSD>  (870) 
0.97931

>  <N_unconstrained_atoms>  (870) 
2.0

>  <∆∆G>  (870) 
-7.178431

>  <runtime>  (870) 
37.204559

>  <generation_date>  (870) 
nan

$$$$
mArh-6woj_A_0_A_α-5CB5_0_K_γ
     RDKit          3D

 22 23  0  0  0  0  0  0  0  0999 V2000
   -2.9920   21.7220   -9.0300 C   0  0  0  0  0  0  0  0  0  0  0  0
   -2.6610   22.7550   -8.0040 C   0  0  2  0  0  0  0  0  0  0  0  0
   -2.6580   22.0330   -6.7870 O   0  0  0  0  0  0  0  0  0  0  0  0
   -3.7220   23.8250   -7.8750 C   0  0  1  0  0  0  0  0  0  0  0  0
   -4.3580   24.0710   -9.1420 O   0  0  0  0  0  0  0  0  0  0  0  0
   -3.9140   22.1870   -6.1540 C   0  0  1  0  0  0  0  0  0  0  0  0
   -4.7460   23.2110   -6.9430 C   0  0  1  0  0  0  0  0  0  0  0  0
   -4.5110   20.9220   -6.1470 O   0  0  0  0  0  0  0  0  0  0  0  0
   -5.3550   24.1960   -6.0930 O   0  0  0  0  0  0  0  0  0  0  0  0
   -3.5810   20.0250   -6.7710 C   0  0  0  0  0  0  0  0  0  0  0  0
   -2.2090   19.8520   -6.0930 C   0  0  0  0  0  0  0  0  0  0  0  0
   -1.0540   19.9460   -7.1130 C   0  0  0  0  0  0  0  0  0  0  0  0
   -0.2450   18.6470   -7.2660 C   0  0  0  0  0  0  0  0  0  0  0  0
    0.4840   18.1070   -6.0180 C   0  0  0  0  0  0  0  0  0  0  0  0
   -0.3390   17.0580   -5.2620 C   0  0  0  0  0  0  0  0  0  0  0  0
    0.4580   15.9280   -4.5760 C   0  0  1  0  0  0  0  0  0  0  0  0
   -0.0220   15.8830   -3.2140 O   0  0  0  0  0  0  0  0  0  0  0  0
    0.2840   14.4870   -5.0990 C   0  0  1  0  0  0  0  0  0  0  0  0
    1.4150   13.6430   -5.0000 O   0  0  0  0  0  0  0  0  0  0  0  0
   -0.8300   14.7150   -3.0050 C   0  0  0  0  0  0  0  0  0  0  0  0
   -0.8730   13.9200   -4.2920 C   0  0  2  0  0  0  0  0  0  0  0  0
   -0.6820   12.5250   -4.0920 O   0  0  0  0  0  0  0  0  0  0  0  0
  2  1  1  6
  2  3  1  0
  2  4  1  0
  4  5  1  6
  3  6  1  0
  4  7  1  0
  6  7  1  0
  6  8  1  6
  7  9  1  1
  8 10  1  0
 10 11  1  0
 11 12  1  0
 12 13  1  0
 13 14  1  0
 14 15  1  0
 16 15  1  6
 16 17  1  0
 16 18  1  0
 18 19  1  1
 17 20  1  0
 18 21  1  0
 20 21  1  0
 21 22  1  1
M  END
>  <%Rank>  (871) 
66.412214

>  <N_hits>  (871) 
2

>  <submitter_name>  (871) 
nan

>  <original SMILES>  (871) 
nan

>  <∆G_unbound>  (871) 
0.187336

>  <∆G_bound>  (871) 
-11.044429

>  <regarded>  (871) 
mArh-6woj_A_0_A_α,5CB5_0_K_γ

>  <ref_pdb>  (871) 
nan

>  <smiles>  (871) 
CC1OC(OCCCCCCC2OCC(O)C2O)C(O)C1O

>  <submitter_email>  (871) 
nan

>  <disregarded>  (871) 


>  <LE>  (871) 
-0.510535

>  <submitter_institution>  (871) 
nan

>  <ref_mols>  (871) 
mArh-6woj_A_0_A,5CB5_0_K

>  <N_constrained_atoms>  (871) 
17.0

>  <ref_url>  (871) 
nan

>  <method>  (871) 
nan

>  <comRMSD>  (871) 
0.943238

>  <N_unconstrained_atoms>  (871) 
5.0

>  <∆∆G>  (871) 
-11.231764

>  <runtime>  (871) 
43.067084

>  <generation_date>  (871) 
nan

$$$$
mArh-5cb5_G_0_G_α-mArh-x1018_0_A_α
     RDKit          3D

 24 26  0  0  0  0  0  0  0  0999 V2000
   -1.9620   21.6920   -8.1820 C   0  0  0  0  0  0  0  0  0  0  0  0
   -3.3180   21.8940   -8.8440 C   0  0  1  0  0  0  0  0  0  0  0  0
   -4.2770   20.9100   -8.4440 O   0  0  0  0  0  0  0  0  0  0  0  0
   -3.9420   23.2280   -8.5110 C   0  0  1  0  0  0  0  0  0  0  0  0
   -4.3840   23.9050   -9.6930 O   0  0  0  0  0  0  0  0  0  0  0  0
   -4.8640   21.3390   -7.2410 C   0  0  2  0  0  0  0  0  0  0  0  0
   -5.1120   22.8450   -7.6020 C   0  0  1  0  0  0  0  0  0  0  0  0
   -3.8880   20.9190   -6.2230 O   0  0  0  0  0  0  0  0  0  0  0  0
   -5.3110   23.7590   -6.5250 O   0  0  0  0  0  0  0  0  0  0  0  0
   -3.1180   19.7240   -6.6820 C   0  0  0  0  0  0  0  0  0  0  0  0
   -2.2600   18.8550   -5.6620 C   0  0  0  0  0  0  0  0  0  0  0  0
   -2.5470   17.2690   -5.7720 C   0  0  0  0  0  0  0  0  0  0  0  0
   -2.4080   16.1730   -4.6050 C   0  0  0  0  0  0  0  0  0  0  0  0
   -3.6550   15.6410   -3.7260 C   0  0  0  0  0  0  0  0  0  0  0  0
   -3.7000   14.5800   -2.6610 N   0  0  0  0  0  0  0  0  0  0  0  0
   -2.3730   14.3350   -2.1870 N   0  0  0  0  0  0  0  0  0  0  0  0
   -4.4530   14.8420   -1.4430 N   0  0  0  0  0  0  0  0  0  0  0  0
   -2.3460   14.7210   -0.7690 N   0  0  0  0  0  0  0  0  0  0  0  0
   -3.6650   14.2490   -0.3800 C   0  0  1  0  0  0  0  0  0  0  0  0
   -5.8410   14.7430   -1.3450 N   0  0  0  0  0  0  0  0  0  0  0  0
   -6.3130   14.7500   -0.1020 C   0  0  0  0  0  0  0  0  0  0  0  0
   -4.1710   14.6210    0.9610 C   0  0  0  0  0  0  0  0  0  0  0  0
   -8.0260   14.6170    0.1200 Cl  0  0  0  0  0  0  0  0  0  0  0  0
   -5.4700   14.8640    1.1260 C   0  0  0  0  0  0  0  0  0  0  0  0
  2  1  1  1
  2  3  1  0
  2  4  1  0
  4  5  1  6
  3  6  1  0
  4  7  1  0
  6  7  1  0
  6  8  1  1
  7  9  1  1
  8 10  1  0
 10 11  1  0
 11 12  1  0
 12 13  1  0
 13 14  1  0
 14 15  1  0
 15 16  1  0
 15 17  1  0
 16 18  1  0
 17 19  1  0
 18 19  1  0
 17 20  1  0
 20 21  2  0
 19 22  1  1
 21 23  1  0
 21 24  1  0
 22 24  2  0
M  END
>  <%Rank>  (872) 
66.48855

>  <N_hits>  (872) 
2

>  <submitter_name>  (872) 
nan

>  <original SMILES>  (872) 
nan

>  <∆G_unbound>  (872) 
1.788061

>  <∆G_bound>  (872) 
-6.834077

>  <regarded>  (872) 
mArh-5cb5_G_0_G_α,mArh-x1018_0_A_α

>  <ref_pdb>  (872) 
nan

>  <smiles>  (872) 
CC1OC(OCCCCCN2NNC3C=CC(Cl)=NN32)C(O)C1O

>  <submitter_email>  (872) 
nan

>  <disregarded>  (872) 


>  <LE>  (872) 
-0.359256

>  <submitter_institution>  (872) 
nan

>  <ref_mols>  (872) 
mArh-5cb5_G_0_G,mArh-x1018_0_A

>  <N_constrained_atoms>  (872) 
19.0

>  <ref_url>  (872) 
nan

>  <method>  (872) 
nan

>  <comRMSD>  (872) 
0.928113

>  <N_unconstrained_atoms>  (872) 
5.0

>  <∆∆G>  (872) 
-8.622138

>  <runtime>  (872) 
30.772422

>  <generation_date>  (872) 
nan

$$$$
5CMS_0_C_β-5CB5_0_A_γ
     RDKit          3D

 16 16  0  0  0  0  0  0  0  0999 V2000
   -1.6010   20.1730   -8.2780 O   0  0  0  0  0  0  0  0  0  0  0  0
   -0.2260   19.6320   -7.5400 P   0  0  0  0  0  0  0  0  0  0  0  0
   -0.2500   18.2130   -6.6740 O   0  0  0  0  0  0  0  0  0  0  0  0
    0.1710   18.8060   -8.7330 O   0  0  0  0  0  0  0  0  0  0  0  0
    1.0410   20.5780   -7.5930 O   0  0  0  0  0  0  0  0  0  0  0  0
   -1.6480   17.9920   -5.9350 P   0  0  0  0  0  0  0  0  0  0  0  0
   -1.3470   16.5840   -5.3350 O   0  0  0  0  0  0  0  0  0  0  0  0
   -2.8980   17.1870   -6.7120 O   0  0  0  0  0  0  0  0  0  0  0  0
   -1.9200   18.7350   -4.5340 O   0  0  0  0  0  0  0  0  0  0  0  0
   -0.1550   16.0540   -4.8380 C   0  0  1  0  0  0  0  0  0  0  0  0
   -0.1390   16.0440   -3.4360 O   0  0  0  0  0  0  0  0  0  0  0  0
    0.0540   14.6360   -5.1670 C   0  0  1  0  0  0  0  0  0  0  0  0
    1.2310   14.0930   -4.6050 O   0  0  0  0  0  0  0  0  0  0  0  0
   -0.7520   14.8370   -3.0070 C   0  0  0  0  0  0  0  0  0  0  0  0
   -1.0940   14.1150   -4.3220 C   0  0  2  0  0  0  0  0  0  0  0  0
   -0.9980   12.7510   -4.2440 O   0  0  0  0  0  0  0  0  0  0  0  0
  1  2  1  0
  2  3  1  0
  2  4  1  0
  2  5  1  0
  3  6  1  0
  6  7  1  0
  6  8  1  0
  6  9  1  0
 10  7  1  1
 10 11  1  0
 10 12  1  0
 12 13  1  1
 11 14  1  0
 12 15  1  0
 14 15  1  0
 15 16  1  1
M  CHG  2   4  -1   8  -1
M  END
>  <%Rank>  (873) 
66.564885

>  <N_hits>  (873) 
2

>  <submitter_name>  (873) 
nan

>  <original SMILES>  (873) 
nan

>  <∆G_unbound>  (873) 
1.160673

>  <∆G_bound>  (873) 
-7.115245

>  <regarded>  (873) 
5CMS_0_C_β,5CB5_0_A_γ

>  <ref_pdb>  (873) 
nan

>  <smiles>  (873) 
[O-][PH](O)(O)O[PH]([O-])(O)OC1OCC(O)C1O

>  <submitter_email>  (873) 
nan

>  <disregarded>  (873) 


>  <LE>  (873) 
-0.517245

>  <submitter_institution>  (873) 
nan

>  <ref_mols>  (873) 
5CMS_0_C,5CB5_0_A

>  <N_constrained_atoms>  (873) 
16.0

>  <ref_url>  (873) 
nan

>  <method>  (873) 
nan

>  <comRMSD>  (873) 
1.074897

>  <N_unconstrained_atoms>  (873) 
0.0

>  <∆∆G>  (873) 
-8.275918

>  <runtime>  (873) 
28.420725

>  <generation_date>  (873) 
nan

$$$$
mArh-5cms_Q_16_Q_α-5CB5_0_E_γ
     RDKit          3D

 23 24  0  0  0  0  0  0  0  0999 V2000
   -1.8280   22.2990   -7.6470 C   0  0  0  0  0  0  0  0  0  0  0  0
   -1.6200   22.0860   -9.1310 C   0  0  1  0  0  0  0  0  0  0  0  0
   -2.9000   22.0160   -9.7490 O   0  0  0  0  0  0  0  0  0  0  0  0
   -0.8430   23.2310   -9.7810 C   0  0  1  0  0  0  0  0  0  0  0  0
    0.4930   22.8120  -10.0460 O   0  0  0  0  0  0  0  0  0  0  0  0
   -2.7060   22.4290  -11.0930 C   0  0  2  0  0  0  0  0  0  0  0  0
   -1.5060   23.3900  -11.1320 C   0  0  1  0  0  0  0  0  0  0  0  0
   -3.8940   23.0300  -11.5780 O   0  0  0  0  0  0  0  0  0  0  0  0
   -1.9040   24.7470  -11.3840 O   0  0  0  0  0  0  0  0  0  0  0  0
    1.3370   22.7730   -8.9020 C   0  0  0  0  0  0  0  0  0  0  0  0
    0.8120   21.8420   -7.7910 C   0  0  0  0  0  0  0  0  0  0  0  0
   -0.0320   20.5830   -8.1590 C   0  0  0  0  0  0  0  0  0  0  0  0
   -0.5260   19.7190   -7.0060 C   0  0  0  0  0  0  0  0  0  0  0  0
    0.6110   18.8230   -6.4940 C   0  0  0  0  0  0  0  0  0  0  0  0
    0.3920   18.1650   -5.1370 C   0  0  0  0  0  0  0  0  0  0  0  0
    0.8010   16.7070   -5.0160 C   0  0  0  0  0  0  0  0  0  0  0  0
   -0.2880   15.7210   -4.6580 C   0  0  2  0  0  0  0  0  0  0  0  0
   -0.4530   15.6400   -3.2390 O   0  0  0  0  0  0  0  0  0  0  0  0
   -0.1360   14.2770   -5.1060 C   0  0  1  0  0  0  0  0  0  0  0  0
    1.1230   13.6940   -4.8150 O   0  0  0  0  0  0  0  0  0  0  0  0
   -1.1510   14.4210   -2.9680 C   0  0  0  0  0  0  0  0  0  0  0  0
   -1.2500   13.6570   -4.2860 C   0  0  2  0  0  0  0  0  0  0  0  0
   -1.0730   12.2550   -4.1580 O   0  0  0  0  0  0  0  0  0  0  0  0
  2  1  1  1
  2  3  1  0
  2  4  1  0
  4  5  1  6
  3  6  1  0
  4  7  1  0
  6  7  1  0
  6  8  1  1
  7  9  1  1
  5 10  1  0
 10 11  1  0
 11 12  1  0
 12 13  1  0
 13 14  1  0
 14 15  1  0
 15 16  1  0
 17 16  1  1
 17 18  1  0
 17 19  1  0
 19 20  1  1
 18 21  1  0
 19 22  1  0
 21 22  1  0
 22 23  1  1
M  END
>  <%Rank>  (874) 
66.641221

>  <N_hits>  (874) 
2

>  <submitter_name>  (874) 
nan

>  <original SMILES>  (874) 
nan

>  <∆G_unbound>  (874) 
0.438128

>  <∆G_bound>  (874) 
-9.071126

>  <regarded>  (874) 
mArh-5cms_Q_16_Q_α,5CB5_0_E_γ

>  <ref_pdb>  (874) 
nan

>  <smiles>  (874) 
CC1OC(O)C(O)C1OCCCCCCCC1OCC(O)C1O

>  <submitter_email>  (874) 
nan

>  <disregarded>  (874) 


>  <LE>  (874) 
-0.413446

>  <submitter_institution>  (874) 
nan

>  <ref_mols>  (874) 
mArh-5cms_Q_16_Q,5CB5_0_E

>  <N_constrained_atoms>  (874) 
17.0

>  <ref_url>  (874) 
nan

>  <method>  (874) 
nan

>  <comRMSD>  (874) 
0.871324

>  <N_unconstrained_atoms>  (874) 
6.0

>  <∆∆G>  (874) 
-9.509254

>  <runtime>  (874) 
36.837946

>  <generation_date>  (874) 
nan

$$$$
5L9K_0_B_α-5CMS_0_E_β
     RDKit          3D

 17 17  0  0  0  0  0  0  0  0999 V2000
   -2.4550   21.1060   -7.4540 C   0  0  0  0  0  0  0  0  0  0  0  0
   -0.9400   20.3230   -7.9540 P   0  0  0  0  0  0  0  0  0  0  0  0
   -0.6860   19.4870   -6.6700 O   0  0  0  0  0  0  0  0  0  0  0  0
   -3.3610   21.8090   -8.4930 C   0  0  1  0  0  0  0  0  0  0  0  0
    0.5030   21.0220   -7.7480 O   0  0  0  0  0  0  0  0  0  0  0  0
   -0.9010   18.7980   -8.7060 O   0  0  0  0  0  0  0  0  0  0  0  0
   -4.6450   21.3010   -8.4900 O   0  0  0  0  0  0  0  0  0  0  0  0
   -3.6880   23.2860   -8.2160 C   0  0  1  0  0  0  0  0  0  0  0  0
   -4.5010   23.8020   -9.2330 O   0  0  0  0  0  0  0  0  0  0  0  0
   -1.5400   18.1400   -6.1910 P   0  0  0  0  0  0  0  0  0  0  0  0
   -5.4160   21.9900   -7.5790 C   0  0  1  0  0  0  0  0  0  0  0  0
   -4.5890   23.0810   -7.0110 C   0  0  2  0  0  0  0  0  0  0  0  0
   -6.5220   22.5440   -8.1900 O   0  0  0  0  0  0  0  0  0  0  0  0
   -5.3670   24.2450   -6.7880 O   0  0  0  0  0  0  0  0  0  0  0  0
   -0.9230   17.0940   -5.0250 O   0  0  0  0  0  0  0  0  0  0  0  0
   -2.1560   18.9590   -5.1010 O   0  0  0  0  0  0  0  0  0  0  0  0
   -2.9070   17.7470   -6.8600 O   0  0  0  0  0  0  0  0  0  0  0  0
  1  2  1  0
  2  3  1  0
  4  1  1  1
  2  5  1  0
  2  6  1  0
  4  7  1  0
  4  8  1  0
  8  9  1  6
  3 10  1  0
  7 11  1  0
  8 12  1  0
 11 12  1  0
 11 13  1  6
 12 14  1  6
 10 15  1  0
 10 16  1  0
 10 17  1  0
M  CHG  2   5  -1  16  -1
M  END
>  <%Rank>  (875) 
66.717557

>  <N_hits>  (875) 
2

>  <submitter_name>  (875) 
nan

>  <original SMILES>  (875) 
nan

>  <∆G_unbound>  (875) 
1.818629

>  <∆G_bound>  (875) 
-9.15916

>  <regarded>  (875) 
5L9K_0_B_α,5CMS_0_E_β

>  <ref_pdb>  (875) 
nan

>  <smiles>  (875) 
[O-][PH](O)(O)O[PH]([O-])(O)CC1OC(O)C(O)C1O

>  <submitter_email>  (875) 
nan

>  <disregarded>  (875) 


>  <LE>  (875) 
-0.645752

>  <submitter_institution>  (875) 
nan

>  <ref_mols>  (875) 
5L9K_0_B,5CMS_0_E

>  <N_constrained_atoms>  (875) 
17.0

>  <ref_url>  (875) 
nan

>  <method>  (875) 
nan

>  <comRMSD>  (875) 
1.167853

>  <N_unconstrained_atoms>  (875) 
0.0

>  <∆∆G>  (875) 
-10.977789

>  <runtime>  (875) 
34.349271

>  <generation_date>  (875) 
nan

$$$$
mArh-5cb5_E_0_E_α-5CMS_0_P_β
     RDKit          3D

 17 17  0  0  0  0  0  0  0  0999 V2000
   -1.6140   21.7550   -7.9650 C   0  0  0  0  0  0  0  0  0  0  0  0
   -0.6550   20.2670   -7.9500 P   0  0  0  0  0  0  0  0  0  0  0  0
   -1.3420   19.6960   -6.6880 O   0  0  0  0  0  0  0  0  0  0  0  0
   -3.0030   21.8510   -8.6180 C   0  0  1  0  0  0  0  0  0  0  0  0
    0.8070   20.1860   -7.2810 O   0  0  0  0  0  0  0  0  0  0  0  0
   -1.1020   18.8280   -8.6920 O   0  0  0  0  0  0  0  0  0  0  0  0
   -3.9400   21.1090   -7.9030 O   0  0  0  0  0  0  0  0  0  0  0  0
   -3.5090   23.3100   -8.5510 C   0  0  1  0  0  0  0  0  0  0  0  0
   -4.1810   23.7510   -9.6820 O   0  0  0  0  0  0  0  0  0  0  0  0
   -1.6230   18.0910   -6.3540 P   0  0  0  0  0  0  0  0  0  0  0  0
   -5.0530   21.8670   -7.6200 C   0  0  2  0  0  0  0  0  0  0  0  0
   -4.6100   23.2730   -7.5200 C   0  0  2  0  0  0  0  0  0  0  0  0
   -5.7000   21.5510   -6.4240 O   0  0  0  0  0  0  0  0  0  0  0  0
   -5.6040   24.1300   -8.0360 O   0  0  0  0  0  0  0  0  0  0  0  0
   -0.3410   17.1050   -5.8990 O   0  0  0  0  0  0  0  0  0  0  0  0
   -1.8030   18.4260   -4.9030 O   0  0  0  0  0  0  0  0  0  0  0  0
   -3.0430   17.3890   -6.5020 O   0  0  0  0  0  0  0  0  0  0  0  0
  1  2  1  0
  2  3  1  0
  4  1  1  1
  2  5  1  0
  2  6  1  0
  4  7  1  0
  4  8  1  0
  8  9  1  6
  3 10  1  0
  7 11  1  0
  8 12  1  0
 11 12  1  0
 11 13  1  1
 12 14  1  6
 10 15  1  0
 10 16  1  0
 10 17  1  0
M  CHG  2   5  -1  16  -1
M  END
>  <%Rank>  (876) 
66.793893

>  <N_hits>  (876) 
2

>  <submitter_name>  (876) 
nan

>  <original SMILES>  (876) 
nan

>  <∆G_unbound>  (876) 
1.818629

>  <∆G_bound>  (876) 
-6.834677

>  <regarded>  (876) 
mArh-5cb5_E_0_E_α,5CMS_0_P_β

>  <ref_pdb>  (876) 
nan

>  <smiles>  (876) 
[O-][PH](O)(O)O[PH]([O-])(O)CC1OC(O)C(O)C1O

>  <submitter_email>  (876) 
nan

>  <disregarded>  (876) 


>  <LE>  (876) 
-0.509018

>  <submitter_institution>  (876) 
nan

>  <ref_mols>  (876) 
mArh-5cb5_E_0_E,5CMS_0_P

>  <N_constrained_atoms>  (876) 
17.0

>  <ref_url>  (876) 
nan

>  <method>  (876) 
nan

>  <comRMSD>  (876) 
1.099674

>  <N_unconstrained_atoms>  (876) 
0.0

>  <∆∆G>  (876) 
-8.653306

>  <runtime>  (876) 
36.115592

>  <generation_date>  (876) 
nan

$$$$
mArh-4iqy_A_0_A_α-mArh-EU0046_1_B_α
     RDKit          3D

 23 24  0  0  0  0  0  0  0  0999 V2000
   -2.3860   21.3540   -8.6570 C   0  0  0  0  0  0  0  0  0  0  0  0
   -3.7290   21.5820   -8.0000 C   0  0  2  0  0  0  0  0  0  0  0  0
   -4.8700   20.9720   -8.6420 O   0  0  0  0  0  0  0  0  0  0  0  0
   -4.2000   23.0030   -7.9080 C   0  0  1  0  0  0  0  0  0  0  0  0
   -4.5360   23.6730   -9.1310 O   0  0  0  0  0  0  0  0  0  0  0  0
   -6.0160   21.4000   -7.8530 C   0  0  1  0  0  0  0  0  0  0  0  0
   -5.4340   22.6680   -7.0980 C   0  0  2  0  0  0  0  0  0  0  0  0
   -7.3580   21.5880   -8.4940 O   0  0  0  0  0  0  0  0  0  0  0  0
   -6.1980   23.8710   -7.0660 O   0  0  0  0  0  0  0  0  0  0  0  0
   -8.2320   20.5340   -9.0940 C   0  0  0  0  0  0  0  0  0  0  0  0
   -9.8750   20.4490   -8.8980 C   0  0  0  0  0  0  0  0  0  0  0  0
  -10.9640   21.4230   -8.1420 C   0  0  0  0  0  0  0  0  0  0  0  0
  -11.8520   20.9920   -6.8250 C   0  0  0  0  0  0  0  0  0  0  0  0
  -12.4740   21.9990   -5.6930 C   0  0  0  0  0  0  0  0  0  0  0  0
  -12.6030   21.5720   -4.2170 N   0  0  0  0  0  0  0  0  0  0  0  0
  -12.5870   22.3980   -3.0460 C   0  0  0  0  0  0  0  0  0  0  0  0
  -13.5660   22.4740   -1.9540 C   0  0  0  0  0  0  0  0  0  0  0  0
  -11.6100   23.2650   -2.7540 N   0  0  0  0  0  0  0  0  0  0  0  0
  -14.7950   21.7810   -1.7340 C   0  0  0  0  0  0  0  0  0  0  0  0
  -11.9300   23.8490   -1.5820 N   0  0  0  0  0  0  0  0  0  0  0  0
  -13.1010   23.4150   -1.0430 C   0  0  0  0  0  0  0  0  0  0  0  0
  -13.6430   23.9280    0.2510 C   0  0  0  0  0  0  0  0  0  0  0  0
  -15.8010   21.2470   -1.5000 N   0  0  0  0  0  0  0  0  0  0  0  0
  2  1  1  6
  2  3  1  0
  2  4  1  0
  4  5  1  6
  3  6  1  0
  4  7  1  0
  6  7  1  0
  6  8  1  6
  7  9  1  6
  8 10  1  0
 10 11  1  0
 11 12  1  0
 12 13  1  0
 13 14  1  0
 14 15  1  0
 15 16  1  0
 16 17  1  0
 16 18  2  0
 17 19  1  0
 18 20  1  0
 17 21  2  0
 20 21  1  0
 21 22  1  0
 19 23  3  0
M  END
>  <%Rank>  (877) 
66.870229

>  <N_hits>  (877) 
2

>  <submitter_name>  (877) 
nan

>  <original SMILES>  (877) 
nan

>  <∆G_unbound>  (877) 
1.851595

>  <∆G_bound>  (877) 
-4.272182

>  <regarded>  (877) 
mArh-4iqy_A_0_A_α,mArh-EU0046_1_B_α

>  <ref_pdb>  (877) 
nan

>  <smiles>  (877) 
Cc1[nH]nc(NCCCCCOC2OC(C)C(O)C2O)c1C#N

>  <submitter_email>  (877) 
nan

>  <disregarded>  (877) 


>  <LE>  (877) 
-0.266251

>  <submitter_institution>  (877) 
nan

>  <ref_mols>  (877) 
mArh-4iqy_A_0_A,mArh-EU0046_1_B

>  <N_constrained_atoms>  (877) 
18.0

>  <ref_url>  (877) 
nan

>  <method>  (877) 
nan

>  <comRMSD>  (877) 
0.862785

>  <N_unconstrained_atoms>  (877) 
5.0

>  <∆∆G>  (877) 
-6.123777

>  <runtime>  (877) 
35.504673

>  <generation_date>  (877) 
nan

$$$$
mArh-5cb5_P_0_P_α-mArh-x0969_0_A_α
     RDKit          3D

 24 26  0  0  0  0  0  0  0  0999 V2000
   -4.0430   22.2300  -10.1130 C   0  0  0  0  0  0  0  0  0  0  0  0
   -3.2910   22.3530   -8.8470 C   0  0  2  0  0  0  0  0  0  0  0  0
   -3.3880   21.1490   -8.1120 O   0  0  0  0  0  0  0  0  0  0  0  0
   -3.9660   23.4420   -8.0760 C   0  0  1  0  0  0  0  0  0  0  0  0
   -4.8300   24.1740   -8.9430 O   0  0  0  0  0  0  0  0  0  0  0  0
   -3.5870   21.5900   -6.7850 C   0  0  1  0  0  0  0  0  0  0  0  0
   -4.7260   22.6170   -7.0530 C   0  0  1  0  0  0  0  0  0  0  0  0
   -3.8210   20.3850   -5.9960 O   0  0  0  0  0  0  0  0  0  0  0  0
   -5.0940   23.5530   -6.0330 O   0  0  0  0  0  0  0  0  0  0  0  0
   -2.5880   19.5820   -5.7090 C   0  0  0  0  0  0  0  0  0  0  0  0
   -2.3910   18.0990   -6.3080 C   0  0  0  0  0  0  0  0  0  0  0  0
   -3.1030   16.7150   -5.8390 C   0  0  0  0  0  0  0  0  0  0  0  0
   -2.9100   16.1070   -4.3900 C   0  0  0  0  0  0  0  0  0  0  0  0
   -3.9460   15.0880   -3.7130 C   0  0  0  0  0  0  0  0  0  0  0  0
   -4.0270   15.0210   -2.1370 C   0  0  0  0  0  0  0  0  0  0  0  0
   -5.2270   14.9330   -1.2620 C   0  0  0  0  0  0  0  0  0  0  0  0
   -2.8510   15.0190   -1.4680 C   0  0  0  0  0  0  0  0  0  0  0  0
   -6.5330   14.8880   -1.4890 N   0  0  0  0  0  0  0  0  0  0  0  0
   -5.0460   14.8730    0.1340 N   0  0  0  0  0  0  0  0  0  0  0  0
   -2.7180   14.9590   -0.0150 C   0  0  0  0  0  0  0  0  0  0  0  0
   -6.3110   14.7880    0.6930 C   0  0  0  0  0  0  0  0  0  0  0  0
   -7.1980   14.7970   -0.2740 N   0  0  0  0  0  0  0  0  0  0  0  0
   -3.8050   14.8940    0.7490 C   0  0  0  0  0  0  0  0  0  0  0  0
   -6.5580   14.7130    2.0310 N   0  0  0  0  0  0  0  0  0  0  0  0
  2  1  1  6
  2  3  1  0
  2  4  1  0
  4  5  1  6
  3  6  1  0
  4  7  1  0
  6  7  1  0
  6  8  1  1
  7  9  1  1
  8 10  1  0
 10 11  1  0
 11 12  1  0
 12 13  1  0
 13 14  1  0
 14 15  1  0
 15 16  1  0
 15 17  2  0
 16 18  2  0
 16 19  1  0
 17 20  1  0
 19 21  1  0
 18 22  1  0
 21 22  2  0
 19 23  1  0
 20 23  2  0
 21 24  1  0
M  END
>  <%Rank>  (878) 
66.946565

>  <N_hits>  (878) 
2

>  <submitter_name>  (878) 
nan

>  <original SMILES>  (878) 
nan

>  <∆G_unbound>  (878) 
0.229582

>  <∆G_bound>  (878) 
-10.03344

>  <regarded>  (878) 
mArh-5cb5_P_0_P_α,mArh-x0969_0_A_α

>  <ref_pdb>  (878) 
nan

>  <smiles>  (878) 
CC1OC(OCCCCCc2cccn3c(N)nnc23)C(O)C1O

>  <submitter_email>  (878) 
nan

>  <disregarded>  (878) 


>  <LE>  (878) 
-0.427626

>  <submitter_institution>  (878) 
nan

>  <ref_mols>  (878) 
mArh-5cb5_P_0_P,mArh-x0969_0_A

>  <N_constrained_atoms>  (878) 
19.0

>  <ref_url>  (878) 
nan

>  <method>  (878) 
nan

>  <comRMSD>  (878) 
0.972122

>  <N_unconstrained_atoms>  (878) 
5.0

>  <∆∆G>  (878) 
-10.263022

>  <runtime>  (878) 
57.202128

>  <generation_date>  (878) 
nan

$$$$
mArh-6mea_A_0_A_α-5LW0_0_A_β
     RDKit          3D

 21 21  0  0  0  0  0  0  0  0999 V2000
   -2.0830   21.8950   -8.2820 C   0  0  0  0  0  0  0  0  0  0  0  0
   -3.3720   22.3760   -7.7870 C   0  0  2  0  0  0  0  0  0  0  0  0
   -4.5110   21.6480   -8.0550 O   0  0  0  0  0  0  0  0  0  0  0  0
   -3.8630   23.7420   -8.1060 C   0  0  1  0  0  0  0  0  0  0  0  0
   -4.1420   24.0230   -9.4350 O   0  0  0  0  0  0  0  0  0  0  0  0
   -5.3140   22.1950   -7.1300 C   0  0  2  0  0  0  0  0  0  0  0  0
   -5.2090   23.7660   -7.4440 C   0  0  1  0  0  0  0  0  0  0  0  0
   -4.5960   22.2600   -6.0260 O   0  0  0  0  0  0  0  0  0  0  0  0
   -5.3910   24.4290   -6.3060 O   0  0  0  0  0  0  0  0  0  0  0  0
   -4.4520   20.9610   -5.5530 C   0  0  0  0  0  0  0  0  0  0  0  0
   -3.1700   20.5260   -6.1170 C   0  0  0  0  0  0  0  0  0  0  0  0
   -2.0630   20.0670   -5.3340 C   0  0  0  0  0  0  0  0  0  0  0  0
   -2.2760   18.7250   -4.8290 O   0  0  0  0  0  0  0  0  0  0  0  0
   -1.9800   17.5350   -5.8920 P   0  0  0  0  0  0  0  0  0  0  0  0
   -1.8610   18.4940   -7.1050 O   0  0  0  0  0  0  0  0  0  0  0  0
   -0.2850   17.1690   -5.9290 O   0  0  0  0  0  0  0  0  0  0  0  0
   -3.0020   16.6880   -6.7600 O   0  0  0  0  0  0  0  0  0  0  0  0
   -0.4250   19.0900   -7.7510 P   0  0  0  0  0  0  0  0  0  0  0  0
   -1.2160   19.7310   -8.8660 O   0  0  0  0  0  0  0  0  0  0  0  0
    0.2330   18.2160   -9.0140 O   0  0  0  0  0  0  0  0  0  0  0  0
    0.3240   20.3430   -7.2980 O   0  0  0  0  0  0  0  0  0  0  0  0
  2  1  1  6
  2  3  1  0
  2  4  1  0
  4  5  1  6
  3  6  1  0
  4  7  1  0
  6  7  1  0
  6  8  1  1
  7  9  1  1
  8 10  1  0
 10 11  1  0
 11 12  1  0
 12 13  1  0
 13 14  1  0
 14 15  1  0
 14 16  1  0
 14 17  1  0
 15 18  1  0
 18 19  1  0
 18 20  1  0
 18 21  1  0
M  CHG  2  17  -1  20  -1
M  END
>  <%Rank>  (879) 
67.022901

>  <N_hits>  (879) 
2

>  <submitter_name>  (879) 
nan

>  <original SMILES>  (879) 
nan

>  <∆G_unbound>  (879) 
0.686707

>  <∆G_bound>  (879) 
-6.802487

>  <regarded>  (879) 
mArh-6mea_A_0_A_α,5LW0_0_A_β

>  <ref_pdb>  (879) 
nan

>  <smiles>  (879) 
CC1OC(OCCCO[PH]([O-])(O)O[PH]([O-])(O)O)C(O)C1O

>  <submitter_email>  (879) 
nan

>  <disregarded>  (879) 


>  <LE>  (879) 
-0.356628

>  <submitter_institution>  (879) 
nan

>  <ref_mols>  (879) 
mArh-6mea_A_0_A,5LW0_0_A

>  <N_constrained_atoms>  (879) 
18.0

>  <ref_url>  (879) 
nan

>  <method>  (879) 
nan

>  <comRMSD>  (879) 
0.965916

>  <N_unconstrained_atoms>  (879) 
3.0

>  <∆∆G>  (879) 
-7.489194

>  <runtime>  (879) 
57.960721

>  <generation_date>  (879) 
nan

$$$$
5DUS_0_A_β-5CB5_0_R_β
     RDKit          3D

 10  9  0  0  0  0  0  0  0  0999 V2000
   -2.0370   20.3110   -7.5630 O   0  0  0  0  0  0  0  0  0  0  0  0
   -0.5080   19.9300   -7.8660 P   0  0  0  0  0  0  0  0  0  0  0  0
   -0.2260   19.0400   -6.6730 O   0  0  0  0  0  0  0  0  0  0  0  0
    0.7440   20.9190   -7.5400 O   0  0  0  0  0  0  0  0  0  0  0  0
   -0.1500   18.5670   -8.7940 O   0  0  0  0  0  0  0  0  0  0  0  0
   -1.1990   18.4170   -5.5500 P   0  0  0  0  0  0  0  0  0  0  0  0
   -0.9250   16.8920   -4.9150 O   0  0  0  0  0  0  0  0  0  0  0  0
   -2.2200   17.7900   -6.4930 O   0  0  0  0  0  0  0  0  0  0  0  0
   -2.3340   19.3350   -4.8140 O   0  0  0  0  0  0  0  0  0  0  0  0
   -2.9610   16.3580   -5.9080 P   0  0  0  0  0  0  0  0  0  0  0  0
  1  2  1  0
  2  3  1  0
  2  4  1  0
  2  5  1  0
  3  6  1  0
  6  7  1  0
  6  8  1  0
  6  9  1  0
  8 10  1  0
M  CHG  1   4  -1
M  END
>  <%Rank>  (880) 
67.099237

>  <N_hits>  (880) 
2

>  <submitter_name>  (880) 
nan

>  <original SMILES>  (880) 
nan

>  <∆G_unbound>  (880) 
0.717914

>  <∆G_bound>  (880) 
-6.309697

>  <regarded>  (880) 
5DUS_0_A_β,5CB5_0_R_β

>  <ref_pdb>  (880) 
nan

>  <smiles>  (880) 
[O-][PH](O)(O)O[PH](O)(O)OP

>  <submitter_email>  (880) 
nan

>  <disregarded>  (880) 


>  <LE>  (880) 
-0.702761

>  <submitter_institution>  (880) 
nan

>  <ref_mols>  (880) 
5DUS_0_A,5CB5_0_R

>  <N_constrained_atoms>  (880) 
10.0

>  <ref_url>  (880) 
nan

>  <method>  (880) 
nan

>  <comRMSD>  (880) 
1.012043

>  <N_unconstrained_atoms>  (880) 
0.0

>  <∆∆G>  (880) 
-7.027612

>  <runtime>  (880) 
27.739283

>  <generation_date>  (880) 
nan

$$$$
5CMS_0_P_β-mArh-6woj_C_0_C_γ
     RDKit          3D

 18 18  0  0  0  0  0  0  0  0999 V2000
   -0.3940   21.3080   -7.7870 O   0  0  0  0  0  0  0  0  0  0  0  0
   -0.6520   19.6770   -7.9440 P   0  0  0  0  0  0  0  0  0  0  0  0
   -2.0160   18.9910   -7.4390 O   0  0  0  0  0  0  0  0  0  0  0  0
    0.3590   18.8030   -8.8350 O   0  0  0  0  0  0  0  0  0  0  0  0
    0.1370   19.3070   -6.7560 O   0  0  0  0  0  0  0  0  0  0  0  0
   -2.0940   18.0790   -6.0940 P   0  0  0  0  0  0  0  0  0  0  0  0
   -0.7550   17.3400   -6.2720 O   0  0  0  0  0  0  0  0  0  0  0  0
   -2.8850   16.5720   -6.2990 O   0  0  0  0  0  0  0  0  0  0  0  0
   -1.7820   18.5930   -4.6340 O   0  0  0  0  0  0  0  0  0  0  0  0
    0.3870   17.8150   -5.6230 C   0  0  0  0  0  0  0  0  0  0  0  0
    1.0360   16.7000   -4.9260 C   0  0  0  0  0  0  0  0  0  0  0  0
    0.1450   15.6230   -4.4750 C   0  0  2  0  0  0  0  0  0  0  0  0
    0.3350   15.3220   -3.1280 O   0  0  0  0  0  0  0  0  0  0  0  0
    0.3220   14.2940   -5.0920 C   0  0  1  0  0  0  0  0  0  0  0  0
    1.5770   13.7480   -4.8000 O   0  0  0  0  0  0  0  0  0  0  0  0
   -0.3580   14.1470   -2.9200 C   0  0  0  0  0  0  0  0  0  0  0  0
   -0.7190   13.6030   -4.2810 C   0  0  2  0  0  0  0  0  0  0  0  0
   -0.5220   12.2270   -4.4200 O   0  0  0  0  0  0  0  0  0  0  0  0
  1  2  1  0
  2  3  1  0
  2  4  1  0
  2  5  1  0
  3  6  1  0
  6  7  1  0
  6  8  1  0
  6  9  1  0
  7 10  1  0
 10 11  1  0
 12 11  1  6
 12 13  1  0
 12 14  1  0
 14 15  1  1
 13 16  1  0
 14 17  1  0
 16 17  1  0
 17 18  1  1
M  CHG  2   4  -1   8  -1
M  END
>  <%Rank>  (881) 
67.175573

>  <N_hits>  (881) 
2

>  <submitter_name>  (881) 
nan

>  <original SMILES>  (881) 
nan

>  <∆G_unbound>  (881) 
0.600635

>  <∆G_bound>  (881) 
-6.8779

>  <regarded>  (881) 
5CMS_0_P_β,mArh-6woj_C_0_C_γ

>  <ref_pdb>  (881) 
nan

>  <smiles>  (881) 
[O-][PH](O)(O)O[PH]([O-])(O)OCCC1OCC(O)C1O

>  <submitter_email>  (881) 
nan

>  <disregarded>  (881) 


>  <LE>  (881) 
-0.415474

>  <submitter_institution>  (881) 
nan

>  <ref_mols>  (881) 
5CMS_0_P,mArh-6woj_C_0_C

>  <N_constrained_atoms>  (881) 
17.0

>  <ref_url>  (881) 
nan

>  <method>  (881) 
nan

>  <comRMSD>  (881) 
1.02954

>  <N_unconstrained_atoms>  (881) 
1.0

>  <∆∆G>  (881) 
-7.478536

>  <runtime>  (881) 
29.161967

>  <generation_date>  (881) 
nan

$$$$
mArh-5cb5_L_0_L_α-mArh-x0104_0_A_β
     RDKit          3D

 23 24  0  0  0  0  0  0  0  0999 V2000
   -1.1360   22.5770   -7.9690 C   0  0  0  0  0  0  0  0  0  0  0  0
   -2.6040   22.4880   -7.7330 C   0  0  2  0  0  0  0  0  0  0  0  0
   -3.2140   21.3720   -8.2770 O   0  0  0  0  0  0  0  0  0  0  0  0
   -3.6800   23.5750   -7.8790 C   0  0  1  0  0  0  0  0  0  0  0  0
   -4.0350   23.9390   -9.2270 O   0  0  0  0  0  0  0  0  0  0  0  0
   -3.9310   21.4480   -7.0940 C   0  0  1  0  0  0  0  0  0  0  0  0
   -4.8150   22.7170   -7.2750 C   0  0  2  0  0  0  0  0  0  0  0  0
   -4.3160   20.1900   -6.6130 O   0  0  0  0  0  0  0  0  0  0  0  0
   -5.8950   22.6350   -8.2150 O   0  0  0  0  0  0  0  0  0  0  0  0
   -3.0930   19.3520   -6.6870 C   0  0  0  0  0  0  0  0  0  0  0  0
   -2.1050   19.2670   -5.5060 C   0  0  0  0  0  0  0  0  0  0  0  0
   -1.5250   17.8370   -5.1690 C   0  0  0  0  0  0  0  0  0  0  0  0
   -2.4990   16.6450   -4.8610 C   0  0  0  0  0  0  0  0  0  0  0  0
   -1.9920   15.4340   -4.0390 C   0  0  0  0  0  0  0  0  0  0  0  0
   -2.8250   14.9390   -2.7950 C   0  0  0  0  0  0  0  0  0  0  0  0
   -4.2300   15.2760   -2.6780 O   0  0  0  0  0  0  0  0  0  0  0  0
   -4.8220   15.1020   -1.4100 C   0  0  0  0  0  0  0  0  0  0  0  0
   -4.0630   14.9810   -0.2990 N   0  0  0  0  0  0  0  0  0  0  0  0
   -6.2190   15.0600   -1.3640 C   0  0  0  0  0  0  0  0  0  0  0  0
   -4.7130   14.8280    0.8860 C   0  0  0  0  0  0  0  0  0  0  0  0
   -6.8540   14.8940   -0.1260 C   0  0  0  0  0  0  0  0  0  0  0  0
   -6.1010   14.7770    1.0390 C   0  0  0  0  0  0  0  0  0  0  0  0
   -6.7110   14.6270    2.2890 N   0  0  0  0  0  0  0  0  0  0  0  0
  2  1  1  6
  2  3  1  0
  2  4  1  0
  4  5  1  6
  3  6  1  0
  4  7  1  0
  6  7  1  0
  6  8  1  6
  7  9  1  6
  8 10  1  0
 10 11  1  0
 11 12  1  0
 12 13  1  0
 13 14  1  0
 14 15  1  0
 15 16  1  0
 16 17  1  0
 17 18  2  0
 17 19  1  0
 18 20  1  0
 19 21  2  0
 20 22  2  0
 21 22  1  0
 22 23  1  0
M  END
>  <%Rank>  (882) 
67.251908

>  <N_hits>  (882) 
2

>  <submitter_name>  (882) 
nan

>  <original SMILES>  (882) 
nan

>  <∆G_unbound>  (882) 
-0.029941

>  <∆G_bound>  (882) 
-8.444914

>  <regarded>  (882) 
mArh-5cb5_L_0_L_α,mArh-x0104_0_A_β

>  <ref_pdb>  (882) 
nan

>  <smiles>  (882) 
CC1OC(OCCCCCCOc2ccc(N)cn2)C(O)C1O

>  <submitter_email>  (882) 
nan

>  <disregarded>  (882) 


>  <LE>  (882) 
-0.365868

>  <submitter_institution>  (882) 
nan

>  <ref_mols>  (882) 
mArh-5cb5_L_0_L,mArh-x0104_0_A

>  <N_constrained_atoms>  (882) 
18.0

>  <ref_url>  (882) 
nan

>  <method>  (882) 
nan

>  <comRMSD>  (882) 
0.917699

>  <N_unconstrained_atoms>  (882) 
5.0

>  <∆∆G>  (882) 
-8.414973

>  <runtime>  (882) 
33.255893

>  <generation_date>  (882) 
nan

$$$$
mArh-x0900_1_A_α-mArh-EU0860_0_A_α
     RDKit          3D

  8  8  0  0  0  0  0  0  0  0999 V2000
   -1.2650   10.1640   -9.7760 O   0  0  0  0  0  0  0  0  0  0  0  0
   -0.9130    9.5590   -8.7820 C   0  0  0  0  0  0  0  0  0  0  0  0
    0.3330    8.9850   -8.5270 N   0  0  0  0  0  0  0  0  0  0  0  0
   -1.8170    9.3020   -7.5930 C   0  0  0  0  0  0  0  0  0  0  0  0
    1.3940    9.0230   -9.4370 C   0  0  0  0  0  0  0  0  0  0  0  0
   -0.9490    8.5260   -6.6120 C   0  0  0  0  0  0  0  0  0  0  0  0
    0.2140    8.0250   -7.4500 C   0  0  0  0  0  0  0  0  0  0  0  0
    2.0080    8.0930   -9.9530 O   0  0  0  0  0  0  0  0  0  0  0  0
  1  2  2  0
  2  3  1  0
  2  4  1  0
  3  5  1  0
  4  6  1  0
  3  7  1  0
  6  7  1  0
  5  8  2  0
M  END
>  <%Rank>  (883) 
67.328244

>  <N_hits>  (883) 
2

>  <submitter_name>  (883) 
nan

>  <original SMILES>  (883) 
nan

>  <∆G_unbound>  (883) 
0.080009

>  <∆G_bound>  (883) 
-1.759124

>  <regarded>  (883) 
mArh-x0900_1_A_α,mArh-EU0860_0_A_α

>  <ref_pdb>  (883) 
nan

>  <smiles>  (883) 
O=CN1CCCC1=O

>  <submitter_email>  (883) 
nan

>  <disregarded>  (883) 


>  <LE>  (883) 
-0.229892

>  <submitter_institution>  (883) 
nan

>  <ref_mols>  (883) 
mArh-x0900_1_A,mArh-EU0860_0_A

>  <N_constrained_atoms>  (883) 
8.0

>  <ref_url>  (883) 
nan

>  <method>  (883) 
nan

>  <comRMSD>  (883) 
0.707183

>  <N_unconstrained_atoms>  (883) 
0.0

>  <∆∆G>  (883) 
-1.839133

>  <runtime>  (883) 
22.20568

>  <generation_date>  (883) 
nan

$$$$
mArh-x0844_0_A_α-5CB5_0_B_α
     RDKit          3D

 22 23  0  0  0  0  0  0  0  0999 V2000
   -7.2890   14.8510   -0.6280 O   0  0  0  0  0  0  0  0  0  0  0  0
   -6.0540   14.8490   -0.6350 C   0  0  0  0  0  0  0  0  0  0  0  0
   -5.3710   14.8380    0.5620 N   0  0  0  0  0  0  0  0  0  0  0  0
   -5.2070   14.8600   -1.9190 C   0  0  0  0  0  0  0  0  0  0  0  0
   -4.0110   14.7540    0.6430 C   0  0  0  0  0  0  0  0  0  0  0  0
   -3.8790   15.5870   -1.6940 C   0  0  2  0  0  0  0  0  0  0  0  0
   -2.8680   15.6920   -2.8150 O   0  0  0  0  0  0  0  0  0  0  0  0
   -3.2530   15.0960   -0.4110 C   0  0  0  0  0  0  0  0  0  0  0  0
   -3.1860   15.8240   -4.2550 C   0  0  0  0  0  0  0  0  0  0  0  0
   -2.5150   16.8790   -5.3170 C   0  0  0  0  0  0  0  0  0  0  0  0
   -1.8600   18.3430   -5.1190 C   0  0  0  0  0  0  0  0  0  0  0  0
   -2.3400   19.5940   -6.0270 C   0  0  0  0  0  0  0  0  0  0  0  0
   -3.5190   20.5130   -5.5100 C   0  0  0  0  0  0  0  0  0  0  0  0
   -3.6400   21.8790   -5.7610 O   0  0  0  0  0  0  0  0  0  0  0  0
   -3.7310   22.2290   -7.0990 C   0  0  1  0  0  0  0  0  0  0  0  0
   -3.8720   21.1850   -8.0270 O   0  0  0  0  0  0  0  0  0  0  0  0
   -4.8280   23.0870   -7.6220 C   0  0  1  0  0  0  0  0  0  0  0  0
   -5.2570   24.1810   -6.7910 O   0  0  0  0  0  0  0  0  0  0  0  0
   -3.2610   21.9720   -9.0130 C   0  0  1  0  0  0  0  0  0  0  0  0
   -3.9230   23.3850   -8.8180 C   0  0  1  0  0  0  0  0  0  0  0  0
   -1.8180   21.8540   -8.5380 C   0  0  0  0  0  0  0  0  0  0  0  0
   -4.6680   23.9140   -9.9040 O   0  0  0  0  0  0  0  0  0  0  0  0
  1  2  2  0
  2  3  1  0
  2  4  1  0
  3  5  1  0
  4  6  1  0
  6  7  1  6
  5  8  2  0
  6  8  1  0
  7  9  1  0
  9 10  1  0
 10 11  1  0
 11 12  1  0
 12 13  1  0
 13 14  1  0
 15 14  1  1
 15 16  1  0
 15 17  1  0
 17 18  1  1
 16 19  1  0
 17 20  1  0
 19 20  1  0
 19 21  1  1
 20 22  1  6
M  END
>  <%Rank>  (884) 
67.40458

>  <N_hits>  (884) 
2

>  <submitter_name>  (884) 
nan

>  <original SMILES>  (884) 
nan

>  <∆G_unbound>  (884) 
0.177805

>  <∆G_bound>  (884) 
-7.238437

>  <regarded>  (884) 
mArh-x0844_0_A_α,5CB5_0_B_α

>  <ref_pdb>  (884) 
nan

>  <smiles>  (884) 
CC1OC(OCCCCCOC2C=CNC(=O)C2)C(O)C1O

>  <submitter_email>  (884) 
nan

>  <disregarded>  (884) 


>  <LE>  (884) 
-0.337102

>  <submitter_institution>  (884) 
nan

>  <ref_mols>  (884) 
mArh-x0844_0_A,5CB5_0_B

>  <N_constrained_atoms>  (884) 
17.0

>  <ref_url>  (884) 
nan

>  <method>  (884) 
nan

>  <comRMSD>  (884) 
0.874633

>  <N_unconstrained_atoms>  (884) 
5.0

>  <∆∆G>  (884) 
-7.416243

>  <runtime>  (884) 
52.811059

>  <generation_date>  (884) 
nan

$$$$
mArh-5mqx_0_A_α-mArh-mac-242_0_A_α
     RDKit          3D

 24 26  0  0  0  0  0  0  0  0999 V2000
   -5.9370   20.0670   -7.7610 C   0  0  0  0  0  0  0  0  0  0  0  0
   -6.7210   18.7910   -7.9940 C   0  0  2  0  0  0  0  0  0  0  0  0
   -6.0630   17.5490   -7.7000 O   0  0  0  0  0  0  0  0  0  0  0  0
   -7.9270   18.6590   -8.8740 C   0  0  1  0  0  0  0  0  0  0  0  0
   -7.9060   19.2530  -10.1480 O   0  0  0  0  0  0  0  0  0  0  0  0
   -6.9460   16.4960   -8.0890 C   0  0  2  0  0  0  0  0  0  0  0  0
   -8.2090   17.1510   -8.7630 C   0  0  1  0  0  0  0  0  0  0  0  0
   -7.2940   15.6080   -6.9860 O   0  0  0  0  0  0  0  0  0  0  0  0
   -9.4410   16.9360   -8.1070 O   0  0  0  0  0  0  0  0  0  0  0  0
   -6.1960   15.3110   -6.0860 C   0  0  0  0  0  0  0  0  0  0  0  0
   -5.6010   13.9010   -6.0900 C   0  0  0  0  0  0  0  0  0  0  0  0
   -4.8250   13.5750   -4.7610 C   0  0  0  0  0  0  0  0  0  0  0  0
   -4.5240   14.7730   -3.8020 C   0  0  0  0  0  0  0  0  0  0  0  0
   -3.4460   14.5810   -2.7260 C   0  0  0  0  0  0  0  0  0  0  0  0
   -2.1580   14.2160   -3.1220 C   0  0  0  0  0  0  0  0  0  0  0  0
   -3.6780   14.7610   -1.3350 C   0  0  0  0  0  0  0  0  0  0  0  0
   -2.6380   14.5720   -0.3650 C   0  0  0  0  0  0  0  0  0  0  0  0
   -1.1340   14.0280   -2.1890 C   0  0  0  0  0  0  0  0  0  0  0  0
   -2.7880   14.7310    1.0310 C   0  0  0  0  0  0  0  0  0  0  0  0
   -1.3550   14.1980   -0.8160 C   0  0  0  0  0  0  0  0  0  0  0  0
   -4.0060   15.1110    1.5880 N   0  0  0  0  0  0  0  0  0  0  0  0
   -0.3170   14.0020    0.1080 C   0  0  0  0  0  0  0  0  0  0  0  0
   -1.7910   14.5370    1.9210 N   0  0  0  0  0  0  0  0  0  0  0  0
   -0.5860   14.1790    1.4490 C   0  0  0  0  0  0  0  0  0  0  0  0
  2  1  1  6
  2  3  1  0
  2  4  1  0
  4  5  1  6
  3  6  1  0
  4  7  1  0
  6  7  1  0
  6  8  1  1
  7  9  1  1
  8 10  1  0
 10 11  1  0
 11 12  1  0
 12 13  1  0
 13 14  1  0
 14 15  2  0
 14 16  1  0
 16 17  2  0
 15 18  1  0
 17 19  1  0
 17 20  1  0
 18 20  2  0
 19 21  1  0
 20 22  1  0
 19 23  2  0
 22 24  2  0
 23 24  1  0
M  END
>  <%Rank>  (885) 
67.480916

>  <N_hits>  (885) 
2

>  <submitter_name>  (885) 
nan

>  <original SMILES>  (885) 
nan

>  <∆G_unbound>  (885) 
0.057587

>  <∆G_bound>  (885) 
-3.9456

>  <regarded>  (885) 
mArh-5mqx_0_A_α,mArh-mac-242_0_A_α

>  <ref_pdb>  (885) 
nan

>  <smiles>  (885) 
CC1OC(OCCCCc2ccc3ccnc(N)c3c2)C(O)C1O

>  <submitter_email>  (885) 
nan

>  <disregarded>  (885) 


>  <LE>  (885) 
-0.166799

>  <submitter_institution>  (885) 
nan

>  <ref_mols>  (885) 
mArh-5mqx_0_A,mArh-mac-242_0_A

>  <N_constrained_atoms>  (885) 
20.0

>  <ref_url>  (885) 
nan

>  <method>  (885) 
nan

>  <comRMSD>  (885) 
0.90023

>  <N_unconstrained_atoms>  (885) 
4.0

>  <∆∆G>  (885) 
-4.003188

>  <runtime>  (885) 
31.509836

>  <generation_date>  (885) 
nan

$$$$
mArh-5lw0_B_1_B_β-mArh-x0910_1_A_α
     RDKit          3D

 18 18  0  0  0  0  0  0  0  0999 V2000
   -1.7380   20.2740   -8.2600 O   0  0  0  0  0  0  0  0  0  0  0  0
   -0.6170   19.4200   -7.5300 P   0  0  0  0  0  0  0  0  0  0  0  0
   -1.2980   18.8970   -6.1370 O   0  0  0  0  0  0  0  0  0  0  0  0
    0.6760   20.1220   -7.4260 O   0  0  0  0  0  0  0  0  0  0  0  0
   -0.4720   18.2510   -8.5800 O   0  0  0  0  0  0  0  0  0  0  0  0
   -1.9120   17.4240   -5.9000 P   0  0  0  0  0  0  0  0  0  0  0  0
   -0.6280   16.5090   -5.6510 O   0  0  0  0  0  0  0  0  0  0  0  0
   -2.7930   16.9530   -6.9750 O   0  0  0  0  0  0  0  0  0  0  0  0
   -2.6200   17.1900   -4.4870 O   0  0  0  0  0  0  0  0  0  0  0  0
   -3.1020   15.8420   -4.2840 C   0  0  0  0  0  0  0  0  0  0  0  0
   -3.4840   15.4860   -2.8200 C   0  0  0  0  0  0  0  0  0  0  0  0
   -4.9050   14.9430   -2.5750 C   0  0  0  0  0  0  0  0  0  0  0  0
   -5.3290   14.9350   -1.1810 N   0  0  0  0  0  0  0  0  0  0  0  0
   -6.5520   14.4790   -0.8350 N   0  0  0  0  0  0  0  0  0  0  0  0
   -4.6370   15.3380   -0.0810 C   0  0  0  0  0  0  0  0  0  0  0  0
   -6.5300   14.6250    0.4880 C   0  0  0  0  0  0  0  0  0  0  0  0
   -5.3780   15.1470    0.9870 N   0  0  0  0  0  0  0  0  0  0  0  0
   -7.5100   14.3100    1.3350 N   0  0  0  0  0  0  0  0  0  0  0  0
  1  2  1  0
  2  3  1  0
  2  4  2  0
  2  5  1  0
  3  6  1  0
  6  7  1  0
  6  8  2  0
  6  9  1  0
  9 10  1  0
 10 11  1  0
 11 12  1  0
 12 13  1  0
 13 14  1  0
 13 15  1  0
 14 16  2  0
 15 17  2  0
 16 17  1  0
 16 18  1  0
M  END
>  <%Rank>  (886) 
67.557252

>  <N_hits>  (886) 
2

>  <submitter_name>  (886) 
nan

>  <original SMILES>  (886) 
nan

>  <∆G_unbound>  (886) 
3.907259

>  <∆G_bound>  (886) 
-6.369164

>  <regarded>  (886) 
mArh-5lw0_B_1_B_β,mArh-x0910_1_A_α

>  <ref_pdb>  (886) 
nan

>  <smiles>  (886) 
Nc1ncn(CCCOP(=O)(O)OP(=O)(O)O)n1

>  <submitter_email>  (886) 
nan

>  <disregarded>  (886) 


>  <LE>  (886) 
-0.570912

>  <submitter_institution>  (886) 
nan

>  <ref_mols>  (886) 
mArh-5lw0_B_1_B,mArh-x0910_1_A

>  <N_constrained_atoms>  (886) 
15.0

>  <ref_url>  (886) 
nan

>  <method>  (886) 
nan

>  <comRMSD>  (886) 
0.995968

>  <N_unconstrained_atoms>  (886) 
3.0

>  <∆∆G>  (886) 
-10.276423

>  <runtime>  (886) 
27.51572

>  <generation_date>  (886) 
nan

$$$$
5L9K_0_A_α-5CMS_0_E_β
     RDKit          3D

 17 17  0  0  0  0  0  0  0  0999 V2000
   -2.3990   21.1300   -7.4340 C   0  0  0  0  0  0  0  0  0  0  0  0
   -0.9050   20.3230   -7.9480 P   0  0  0  0  0  0  0  0  0  0  0  0
   -0.6550   19.4790   -6.6670 O   0  0  0  0  0  0  0  0  0  0  0  0
   -3.3260   21.7940   -8.4760 C   0  0  1  0  0  0  0  0  0  0  0  0
    0.5440   21.0120   -7.7500 O   0  0  0  0  0  0  0  0  0  0  0  0
   -0.8930   18.8070   -8.7120 O   0  0  0  0  0  0  0  0  0  0  0  0
   -4.5880   21.2630   -8.4450 O   0  0  0  0  0  0  0  0  0  0  0  0
   -3.6890   23.2690   -8.2170 C   0  0  1  0  0  0  0  0  0  0  0  0
   -4.5490   23.7470   -9.2150 O   0  0  0  0  0  0  0  0  0  0  0  0
   -1.5240   18.1380   -6.1890 P   0  0  0  0  0  0  0  0  0  0  0  0
   -5.3120   21.8900   -7.4590 C   0  0  1  0  0  0  0  0  0  0  0  0
   -4.5440   23.0640   -6.9770 C   0  0  2  0  0  0  0  0  0  0  0  0
   -6.5070   22.3310   -7.9690 O   0  0  0  0  0  0  0  0  0  0  0  0
   -5.3890   24.1850   -6.7970 O   0  0  0  0  0  0  0  0  0  0  0  0
   -0.9260   17.0910   -5.0180 O   0  0  0  0  0  0  0  0  0  0  0  0
   -2.1480   18.9580   -5.1030 O   0  0  0  0  0  0  0  0  0  0  0  0
   -2.8910   17.7540   -6.8680 O   0  0  0  0  0  0  0  0  0  0  0  0
  1  2  1  0
  2  3  1  0
  4  1  1  1
  2  5  1  0
  2  6  1  0
  4  7  1  0
  4  8  1  0
  8  9  1  6
  3 10  1  0
  7 11  1  0
  8 12  1  0
 11 12  1  0
 11 13  1  6
 12 14  1  6
 10 15  1  0
 10 16  1  0
 10 17  1  0
M  CHG  2   5  -1  16  -1
M  END
>  <%Rank>  (887) 
67.633588

>  <N_hits>  (887) 
2

>  <submitter_name>  (887) 
nan

>  <original SMILES>  (887) 
nan

>  <∆G_unbound>  (887) 
1.818629

>  <∆G_bound>  (887) 
-9.026454

>  <regarded>  (887) 
5L9K_0_A_α,5CMS_0_E_β

>  <ref_pdb>  (887) 
nan

>  <smiles>  (887) 
[O-][PH](O)(O)O[PH]([O-])(O)CC1OC(O)C(O)C1O

>  <submitter_email>  (887) 
nan

>  <disregarded>  (887) 


>  <LE>  (887) 
-0.637946

>  <submitter_institution>  (887) 
nan

>  <ref_mols>  (887) 
5L9K_0_A,5CMS_0_E

>  <N_constrained_atoms>  (887) 
17.0

>  <ref_url>  (887) 
nan

>  <method>  (887) 
nan

>  <comRMSD>  (887) 
1.176923

>  <N_unconstrained_atoms>  (887) 
0.0

>  <∆∆G>  (887) 
-10.845082

>  <runtime>  (887) 
26.136145

>  <generation_date>  (887) 
nan

$$$$
mArh-5cms_J_9_J_β-mArh-x0900_1_A_α
     RDKit          3D

 20 20  0  0  0  0  0  0  0  0999 V2000
   -0.1810   21.2780   -7.5290 O   0  0  0  0  0  0  0  0  0  0  0  0
   -0.4210   19.7290   -7.8460 P   0  0  0  0  0  0  0  0  0  0  0  0
   -1.5720   19.3060   -6.8460 O   0  0  0  0  0  0  0  0  0  0  0  0
    0.7720   18.8440   -7.8060 O   0  0  0  0  0  0  0  0  0  0  0  0
   -1.1940   19.8680   -9.1870 O   0  0  0  0  0  0  0  0  0  0  0  0
   -1.7020   17.9490   -6.0440 P   0  0  0  0  0  0  0  0  0  0  0  0
   -0.2950   17.2710   -5.8930 O   0  0  0  0  0  0  0  0  0  0  0  0
   -2.9080   16.9400   -6.6460 N   0  0  0  0  0  0  0  0  0  0  0  0
   -2.0630   18.4150   -4.6060 O   0  0  0  0  0  0  0  0  0  0  0  0
   -3.0440   15.6190   -5.9790 C   0  0  0  0  0  0  0  0  0  0  0  0
   -3.7680   14.5560   -6.8520 C   0  0  0  0  0  0  0  0  0  0  0  0
   -3.0700   13.2210   -7.2100 C   0  0  0  0  0  0  0  0  0  0  0  0
   -3.1800   12.6550   -8.6460 C   0  0  0  0  0  0  0  0  0  0  0  0
   -3.0060   11.1560   -8.9380 C   0  0  0  0  0  0  0  0  0  0  0  0
   -1.5890   10.7120   -9.0720 N   0  0  0  0  0  0  0  0  0  0  0  0
   -1.2870    9.7100   -8.3240 C   0  0  0  0  0  0  0  0  0  0  0  0
   -0.1130    9.0090   -8.1330 N   0  0  0  0  0  0  0  0  0  0  0  0
   -2.3690    9.1220   -7.4380 C   0  0  0  0  0  0  0  0  0  0  0  0
   -1.6240    8.0120   -6.6970 C   0  0  0  0  0  0  0  0  0  0  0  0
   -0.1630    8.4150   -6.8130 C   0  0  0  0  0  0  0  0  0  0  0  0
  1  2  1  0
  2  3  1  0
  2  4  2  0
  2  5  1  0
  3  6  1  0
  6  7  1  0
  6  8  2  3
  6  9  1  0
  8 10  1  0
 10 11  1  0
 11 12  1  0
 12 13  1  0
 13 14  1  0
 14 15  1  0
 15 16  2  3
 16 17  1  0
 16 18  1  0
 18 19  1  0
 17 20  1  0
 19 20  1  0
M  END
>  <%Rank>  (888) 
67.709924

>  <N_hits>  (888) 
2

>  <submitter_name>  (888) 
nan

>  <original SMILES>  (888) 
nan

>  <∆G_unbound>  (888) 
1.719577

>  <∆G_bound>  (888) 
-8.714246

>  <regarded>  (888) 
mArh-5cms_J_9_J_β,mArh-x0900_1_A_α

>  <ref_pdb>  (888) 
nan

>  <smiles>  (888) 
O=P(O)(O)OP(O)(O)=NCCCCCN=C1CCCN1

>  <submitter_email>  (888) 
nan

>  <disregarded>  (888) 


>  <LE>  (888) 
-0.521691

>  <submitter_institution>  (888) 
nan

>  <ref_mols>  (888) 
mArh-5cms_J_9_J,mArh-x0900_1_A

>  <N_constrained_atoms>  (888) 
15.0

>  <ref_url>  (888) 
nan

>  <method>  (888) 
nan

>  <comRMSD>  (888) 
0.9069

>  <N_unconstrained_atoms>  (888) 
5.0

>  <∆∆G>  (888) 
-10.433823

>  <runtime>  (888) 
28.519052

>  <generation_date>  (888) 
nan

$$$$
3GQE_0_A_α-5CMS_0_L_γ
     RDKit          3D

 21 21  0  0  0  0  0  0  0  0999 V2000
   -2.4390   18.6160   -6.6080 C   0  0  0  0  0  0  0  0  0  0  0  0
   -2.6350   20.0390   -7.0110 N   0  0  0  0  0  0  0  0  0  0  0  0
   -3.4100   20.9370   -6.1270 C   0  0  0  0  0  0  0  0  0  0  0  0
   -1.9470   18.4000   -5.1790 C   0  0  0  0  0  0  0  0  0  0  0  0
   -1.3500   20.6120   -7.4140 C   0  0  0  0  0  0  0  0  0  0  0  0
   -2.4230   19.4300   -4.4090 O   0  0  0  0  0  0  0  0  0  0  0  0
   -2.4800   17.2580   -4.5600 O   0  0  0  0  0  0  0  0  0  0  0  0
   -3.5940   22.3240   -6.7780 C   0  0  0  0  0  0  0  0  0  0  0  0
   -0.5670   19.7800   -8.4070 C   0  0  0  0  0  0  0  0  0  0  0  0
   -4.4630   22.2280   -7.9060 O   0  0  0  0  0  0  0  0  0  0  0  0
   -0.0150   18.6000   -7.8220 O   0  0  0  0  0  0  0  0  0  0  0  0
    0.4880   18.9800   -6.5550 C   0  0  0  0  0  0  0  0  0  0  0  0
    1.0850   17.8660   -5.7340 C   0  0  0  0  0  0  0  0  0  0  0  0
    0.0750   16.8490   -5.2550 C   0  0  0  0  0  0  0  0  0  0  0  0
    0.7780   15.5880   -4.7790 C   0  0  1  0  0  0  0  0  0  0  0  0
    0.6200   15.5660   -3.3480 O   0  0  0  0  0  0  0  0  0  0  0  0
    0.2890   14.2310   -5.3440 C   0  0  1  0  0  0  0  0  0  0  0  0
    1.3290   13.4540   -5.9510 O   0  0  0  0  0  0  0  0  0  0  0  0
    0.4160   14.2130   -2.9440 C   0  0  0  0  0  0  0  0  0  0  0  0
   -0.2160   13.4870   -4.1230 C   0  0  2  0  0  0  0  0  0  0  0  0
    0.2590   12.1410   -4.1710 O   0  0  0  0  0  0  0  0  0  0  0  0
  1  2  1  0
  2  3  1  0
  1  4  1  0
  2  5  1  0
  4  6  1  0
  4  7  1  0
  3  8  1  0
  5  9  1  0
  8 10  1  0
  9 11  1  0
 11 12  1  0
 12 13  1  0
 13 14  1  0
 15 14  1  6
 15 16  1  0
 15 17  1  0
 17 18  1  1
 16 19  1  0
 17 20  1  0
 19 20  1  0
 20 21  1  6
M  END
>  <%Rank>  (889) 
67.78626

>  <N_hits>  (889) 
2

>  <submitter_name>  (889) 
nan

>  <original SMILES>  (889) 
nan

>  <∆G_unbound>  (889) 
0.289006

>  <∆G_bound>  (889) 
-8.081482

>  <regarded>  (889) 
3GQE_0_A_α,5CMS_0_L_γ

>  <ref_pdb>  (889) 
nan

>  <smiles>  (889) 
OCCN(CCOCCCC1OCC(O)C1O)CC(O)O

>  <submitter_email>  (889) 
nan

>  <disregarded>  (889) 


>  <LE>  (889) 
-0.398595

>  <submitter_institution>  (889) 
nan

>  <ref_mols>  (889) 
3GQE_0_A,5CMS_0_L

>  <N_constrained_atoms>  (889) 
19.0

>  <ref_url>  (889) 
nan

>  <method>  (889) 
nan

>  <comRMSD>  (889) 
1.04911

>  <N_unconstrained_atoms>  (889) 
2.0

>  <∆∆G>  (889) 
-8.370489

>  <runtime>  (889) 
62.704708

>  <generation_date>  (889) 
nan

$$$$
6WOJ_0_C_α-5LW0_0_A_β
     RDKit          3D

 21 21  0  0  0  0  0  0  0  0999 V2000
   -1.8710   21.9130   -8.1050 C   0  0  0  0  0  0  0  0  0  0  0  0
   -3.2280   22.2610   -7.6530 C   0  0  2  0  0  0  0  0  0  0  0  0
   -4.3190   21.5150   -8.0850 O   0  0  0  0  0  0  0  0  0  0  0  0
   -3.7330   23.6330   -7.8810 C   0  0  1  0  0  0  0  0  0  0  0  0
   -3.9600   24.0080   -9.1950 O   0  0  0  0  0  0  0  0  0  0  0  0
   -5.3640   21.9540   -7.3200 C   0  0  2  0  0  0  0  0  0  0  0  0
   -5.1000   23.5770   -7.2720 C   0  0  1  0  0  0  0  0  0  0  0  0
   -5.0870   21.6760   -6.0560 O   0  0  0  0  0  0  0  0  0  0  0  0
   -5.2730   24.0420   -6.0480 O   0  0  0  0  0  0  0  0  0  0  0  0
   -3.7220   22.1020   -5.8290 C   0  0  0  0  0  0  0  0  0  0  0  0
   -3.2920   20.8700   -5.2170 C   0  0  0  0  0  0  0  0  0  0  0  0
   -2.3640   19.9180   -5.8250 C   0  0  0  0  0  0  0  0  0  0  0  0
   -2.1620   18.8110   -4.9100 O   0  0  0  0  0  0  0  0  0  0  0  0
   -1.9570   17.4830   -5.8280 P   0  0  0  0  0  0  0  0  0  0  0  0
   -1.8120   18.3440   -7.1090 O   0  0  0  0  0  0  0  0  0  0  0  0
   -0.2820   17.0310   -5.8430 O   0  0  0  0  0  0  0  0  0  0  0  0
   -3.0120   16.6400   -6.6590 O   0  0  0  0  0  0  0  0  0  0  0  0
   -0.3940   19.0080   -7.7280 P   0  0  0  0  0  0  0  0  0  0  0  0
   -1.2130   19.6850   -8.7990 O   0  0  0  0  0  0  0  0  0  0  0  0
    0.2620   18.2130   -9.0410 O   0  0  0  0  0  0  0  0  0  0  0  0
    0.3380   20.2460   -7.2210 O   0  0  0  0  0  0  0  0  0  0  0  0
  2  1  1  6
  2  3  1  0
  2  4  1  0
  4  5  1  6
  3  6  1  0
  4  7  1  0
  6  7  1  0
  6  8  1  1
  7  9  1  1
  8 10  1  0
 10 11  1  0
 11 12  1  0
 12 13  1  0
 13 14  1  0
 14 15  1  0
 14 16  1  0
 14 17  1  0
 15 18  1  0
 18 19  1  0
 18 20  1  0
 18 21  1  0
M  CHG  2  17  -1  20  -1
M  END
>  <%Rank>  (890) 
67.862595

>  <N_hits>  (890) 
2

>  <submitter_name>  (890) 
nan

>  <original SMILES>  (890) 
nan

>  <∆G_unbound>  (890) 
0.686707

>  <∆G_bound>  (890) 
-5.536737

>  <regarded>  (890) 
6WOJ_0_C_α,5LW0_0_A_β

>  <ref_pdb>  (890) 
nan

>  <smiles>  (890) 
CC1OC(OCCCO[PH]([O-])(O)O[PH]([O-])(O)O)C(O)C1O

>  <submitter_email>  (890) 
nan

>  <disregarded>  (890) 


>  <LE>  (890) 
-0.296354

>  <submitter_institution>  (890) 
nan

>  <ref_mols>  (890) 
6WOJ_0_C,5LW0_0_A

>  <N_constrained_atoms>  (890) 
18.0

>  <ref_url>  (890) 
nan

>  <method>  (890) 
nan

>  <comRMSD>  (890) 
0.947173

>  <N_unconstrained_atoms>  (890) 
3.0

>  <∆∆G>  (890) 
-6.223444

>  <runtime>  (890) 
34.306027

>  <generation_date>  (890) 
nan

$$$$
5LW0_1_B_β-5CMS_0_I_δ
     RDKit          3D

 21 22  0  0  0  0  0  0  0  0999 V2000
   -2.0400   20.3040   -7.7290 O   0  0  0  0  0  0  0  0  0  0  0  0
   -0.9230   19.2720   -7.7580 P   0  0  0  0  0  0  0  0  0  0  0  0
   -1.3470   18.8000   -6.1860 O   0  0  0  0  0  0  0  0  0  0  0  0
    0.2250   20.3720   -7.9780 O   0  0  0  0  0  0  0  0  0  0  0  0
    0.0130   18.0830   -7.8810 O   0  0  0  0  0  0  0  0  0  0  0  0
   -1.7650   17.3620   -5.7810 P   0  0  0  0  0  0  0  0  0  0  0  0
   -0.1330   16.9040   -6.0520 O   0  0  0  0  0  0  0  0  0  0  0  0
   -2.8560   17.2700   -6.9280 O   0  0  0  0  0  0  0  0  0  0  0  0
   -2.0790   17.5310   -4.2550 O   0  0  0  0  0  0  0  0  0  0  0  0
   -1.8720   16.3610   -3.5500 C   0  0  0  0  0  0  0  0  0  0  0  0
   -3.1470   15.5470   -3.4980 C   0  0  0  0  0  0  0  0  0  0  0  0
   -3.0680   14.4220   -2.5300 C   0  0  1  0  0  0  0  0  0  0  0  0
   -1.6580   14.2230   -2.2010 N   0  0  0  0  0  0  0  0  0  0  0  0
   -3.7040   14.9180   -1.2940 N   0  0  0  0  0  0  0  0  0  0  0  0
   -1.4760   14.8660   -0.9550 C   0  0  1  0  0  0  0  0  0  0  0  0
   -2.8030   14.5630   -0.2630 C   0  0  1  0  0  0  0  0  0  0  0  0
   -0.4360   14.2940   -0.1540 N   0  0  0  0  0  0  0  0  0  0  0  0
   -2.8050   15.4380    0.9190 C   0  0  1  0  0  0  0  0  0  0  0  0
   -4.0880   15.4370    1.6210 N   0  0  0  0  0  0  0  0  0  0  0  0
   -0.4850   14.9450    1.1450 C   0  0  0  0  0  0  0  0  0  0  0  0
   -1.7860   14.8930    1.7520 N   0  0  0  0  0  0  0  0  0  0  0  0
  1  2  1  0
  2  3  1  0
  2  4  1  0
  2  5  1  0
  3  6  1  0
  6  7  1  0
  6  8  1  0
  6  9  1  0
  9 10  1  0
 10 11  1  0
 12 11  1  6
 12 13  1  0
 12 14  1  0
 15 13  1  6
 16 14  1  6
 15 16  1  0
 15 17  1  0
 16 18  1  0
 18 19  1  1
 17 20  1  0
 18 21  1  0
 20 21  1  0
M  CHG  2   4  -1   8  -1
M  END
>  <%Rank>  (891) 
67.938931

>  <N_hits>  (891) 
2

>  <submitter_name>  (891) 
nan

>  <original SMILES>  (891) 
nan

>  <∆G_unbound>  (891) 
4.304915

>  <∆G_bound>  (891) 
-3.555778

>  <regarded>  (891) 
5LW0_1_B_β,5CMS_0_I_δ

>  <ref_pdb>  (891) 
nan

>  <smiles>  (891) 
NC1NCNC2NC(CCO[PH]([O-])(O)O[PH]([O-])(O)O)NC12

>  <submitter_email>  (891) 
nan

>  <disregarded>  (891) 


>  <LE>  (891) 
-0.374319

>  <submitter_institution>  (891) 
nan

>  <ref_mols>  (891) 
5LW0_1_B,5CMS_0_I

>  <N_constrained_atoms>  (891) 
19.0

>  <ref_url>  (891) 
nan

>  <method>  (891) 
nan

>  <comRMSD>  (891) 
1.038809

>  <N_unconstrained_atoms>  (891) 
2.0

>  <∆∆G>  (891) 
-7.860693

>  <runtime>  (891) 
26.44664

>  <generation_date>  (891) 
nan

$$$$
mArh-5cb5_G_0_G_α-3EW5_0_C_α
     RDKit          3D

 15 16  0  0  0  0  0  0  0  0999 V2000
   -1.7320   21.2830   -8.3090 C   0  0  2  0  0  0  0  0  0  0  0  0
   -0.9600   19.7830   -7.7660 P   0  0  0  0  0  0  0  0  0  0  0  0
    0.3820   20.4100   -7.3710 O   0  0  0  0  0  0  0  0  0  0  0  0
   -2.1430   22.1260   -7.1710 C   0  0  0  0  0  0  0  0  0  0  0  0
   -2.9470   21.4240   -9.1440 C   0  0  0  0  0  0  0  0  0  0  0  0
    0.0370   18.9010   -8.8330 O   0  0  0  0  0  0  0  0  0  0  0  0
   -1.2970   19.1160   -6.3510 O   0  0  0  0  0  0  0  0  0  0  0  0
   -3.3510   22.7040   -7.7870 C   0  0  2  0  0  0  0  0  0  0  0  0
   -4.1570   21.1030   -8.6380 O   0  0  0  0  0  0  0  0  0  0  0  0
   -3.6190   24.0970   -7.8880 C   0  0  0  0  0  0  0  0  0  0  0  0
   -4.5530   21.8920   -7.6650 C   0  0  2  0  0  0  0  0  0  0  0  0
   -4.1910   24.2740   -9.1380 O   0  0  0  0  0  0  0  0  0  0  0  0
   -5.6850   22.7550   -8.1500 C   0  0  1  0  0  0  0  0  0  0  0  0
   -5.9650   23.8360   -7.2960 O   0  0  0  0  0  0  0  0  0  0  0  0
   -5.1470   23.3480   -9.4180 C   0  0  0  0  0  0  0  0  0  0  0  0
  1  2  1  1
  2  3  1  0
  1  4  1  0
  1  5  1  0
  2  6  1  0
  2  7  1  0
  8  4  1  1
  5  9  1  0
  8 10  1  0
  8 11  1  0
 11  9  1  6
 10 12  1  0
 11 13  1  0
 13 14  1  1
 12 15  1  0
 13 15  1  0
M  CHG  1   6  -1
M  END
>  <%Rank>  (892) 
68.015267

>  <N_hits>  (892) 
2

>  <submitter_name>  (892) 
nan

>  <original SMILES>  (892) 
nan

>  <∆G_unbound>  (892) 
0.481786

>  <∆G_bound>  (892) 
-5.061068

>  <regarded>  (892) 
mArh-5cb5_G_0_G_α,3EW5_0_C_α

>  <ref_pdb>  (892) 
nan

>  <smiles>  (892) 
[O-][PH](O)(O)C1COC2C(O)COC[C@H]2C1

>  <submitter_email>  (892) 
nan

>  <disregarded>  (892) 


>  <LE>  (892) 
-0.369524

>  <submitter_institution>  (892) 
nan

>  <ref_mols>  (892) 
mArh-5cb5_G_0_G,3EW5_0_C

>  <N_constrained_atoms>  (892) 
15.0

>  <ref_url>  (892) 
nan

>  <method>  (892) 
nan

>  <comRMSD>  (892) 
1.004086

>  <N_unconstrained_atoms>  (892) 
0.0

>  <∆∆G>  (892) 
-5.542854

>  <runtime>  (892) 
35.450995

>  <generation_date>  (892) 
nan

$$$$
5CMS_0_D_α-5CMS_0_Q_β
     RDKit          3D

  9  8  0  0  0  0  0  0  0  0999 V2000
   -0.8020   16.5990   -5.4010 O   0  0  0  0  0  0  0  0  0  0  0  0
   -1.7740   17.8540   -5.8310 P   0  0  0  0  0  0  0  0  0  0  0  0
   -2.6850   17.7960   -7.1420 O   0  0  0  0  0  0  0  0  0  0  0  0
   -1.9920   19.0810   -4.7600 O   0  0  0  0  0  0  0  0  0  0  0  0
   -0.6450   18.5820   -6.5240 O   0  0  0  0  0  0  0  0  0  0  0  0
   -0.7670   19.5840   -7.8460 P   0  0  0  0  0  0  0  0  0  0  0  0
   -1.9230   20.3970   -7.2430 O   0  0  0  0  0  0  0  0  0  0  0  0
    0.1740   18.6820   -8.6380 O   0  0  0  0  0  0  0  0  0  0  0  0
    0.2830   20.8080   -7.9540 O   0  0  0  0  0  0  0  0  0  0  0  0
  1  2  1  0
  2  3  1  0
  2  4  1  0
  2  5  1  0
  5  6  1  0
  6  7  1  0
  6  8  1  0
  6  9  1  0
M  CHG  2   3  -1   8  -1
M  END
>  <%Rank>  (893) 
68.091603

>  <N_hits>  (893) 
2

>  <submitter_name>  (893) 
nan

>  <original SMILES>  (893) 
nan

>  <∆G_unbound>  (893) 
0.773775

>  <∆G_bound>  (893) 
-5.978973

>  <regarded>  (893) 
5CMS_0_D_α,5CMS_0_Q_β

>  <ref_pdb>  (893) 
nan

>  <smiles>  (893) 
[O-][PH](O)(O)O[PH]([O-])(O)O

>  <submitter_email>  (893) 
nan

>  <disregarded>  (893) 


>  <LE>  (893) 
-0.750305

>  <submitter_institution>  (893) 
nan

>  <ref_mols>  (893) 
5CMS_0_D,5CMS_0_Q

>  <N_constrained_atoms>  (893) 
9.0

>  <ref_url>  (893) 
nan

>  <method>  (893) 
nan

>  <comRMSD>  (893) 
1.01811

>  <N_unconstrained_atoms>  (893) 
0.0

>  <∆∆G>  (893) 
-6.752748

>  <runtime>  (893) 
26.036036

>  <generation_date>  (893) 
nan

$$$$
5FUD_0_A_α-mArh-5cb5_A_0_A_γ
     RDKit          3D

 23 24  0  0  0  0  0  0  0  0999 V2000
   -1.1650   20.3590   -6.2000 O   0  0  0  0  0  0  0  0  0  0  0  0
   -0.7950   20.2970   -7.7550 S   0  0  0  0  0  0  0  0  0  0  0  0
    0.5570   21.0850   -8.0420 O   0  0  0  0  0  0  0  0  0  0  0  0
   -0.7760   18.7650   -8.1190 O   0  0  0  0  0  0  0  0  0  0  0  0
   -2.1620   21.0700   -8.4990 C   0  0  0  0  0  0  0  0  0  0  0  0
   -2.4110   22.4310   -7.9990 C   0  0  0  0  0  0  0  0  0  0  0  0
   -0.6990   18.2170   -6.8150 C   0  0  0  0  0  0  0  0  0  0  0  0
    0.6960   18.4870   -6.2880 C   0  0  0  0  0  0  0  0  0  0  0  0
   -3.8450   22.6010   -7.9910 N   0  0  0  0  0  0  0  0  0  0  0  0
    0.8510   18.1520   -4.8270 C   0  0  0  0  0  0  0  0  0  0  0  0
   -4.3580   22.8280   -9.3670 C   0  0  0  0  0  0  0  0  0  0  0  0
   -4.1590   23.7110   -7.1140 C   0  0  0  0  0  0  0  0  0  0  0  0
    1.0770   16.6740   -4.6150 C   0  0  0  0  0  0  0  0  0  0  0  0
   -5.8570   23.1330   -9.3700 C   0  0  0  0  0  0  0  0  0  0  0  0
   -5.6350   23.9180   -7.1570 C   0  0  0  0  0  0  0  0  0  0  0  0
   -6.1340   24.1980   -8.4650 O   0  0  0  0  0  0  0  0  0  0  0  0
   -0.1230   15.7940   -4.4090 C   0  0  2  0  0  0  0  0  0  0  0  0
   -0.3840   15.5660   -3.0170 O   0  0  0  0  0  0  0  0  0  0  0  0
   -0.0330   14.4180   -5.0330 C   0  0  1  0  0  0  0  0  0  0  0  0
    1.1470   13.6860   -4.6900 O   0  0  0  0  0  0  0  0  0  0  0  0
   -1.0620   14.3070   -2.9230 C   0  0  0  0  0  0  0  0  0  0  0  0
   -1.2150   13.7810   -4.3470 C   0  0  2  0  0  0  0  0  0  0  0  0
   -1.1380   12.3770   -4.4520 O   0  0  0  0  0  0  0  0  0  0  0  0
  2  1  1  0
  2  3  1  0
  2  4  1  0
  2  5  1  0
  5  6  1  0
  4  7  1  0
  7  8  1  0
  6  9  1  0
  8 10  1  0
  9 11  1  0
  9 12  1  0
 10 13  1  0
 11 14  1  0
 12 15  1  0
 14 16  1  0
 15 16  1  0
 17 13  1  1
 17 18  1  0
 17 19  1  0
 19 20  1  1
 18 21  1  0
 19 22  1  0
 21 22  1  0
 22 23  1  1
M  END
>  <%Rank>  (894) 
68.167939

>  <N_hits>  (894) 
2

>  <submitter_name>  (894) 
nan

>  <original SMILES>  (894) 
nan

>  <∆G_unbound>  (894) 
0.773694

>  <∆G_bound>  (894) 
-10.688489

>  <regarded>  (894) 
5FUD_0_A_α,mArh-5cb5_A_0_A_γ

>  <ref_pdb>  (894) 
nan

>  <smiles>  (894) 
OC1COC(CCCCOS(O)(O)CCN2CCOCC2)C1O

>  <submitter_email>  (894) 
nan

>  <disregarded>  (894) 


>  <LE>  (894) 
-0.498356

>  <submitter_institution>  (894) 
nan

>  <ref_mols>  (894) 
5FUD_0_A,mArh-5cb5_A_0_A

>  <N_constrained_atoms>  (894) 
20.0

>  <ref_url>  (894) 
nan

>  <method>  (894) 
nan

>  <comRMSD>  (894) 
1.102269

>  <N_unconstrained_atoms>  (894) 
3.0

>  <∆∆G>  (894) 
-11.462183

>  <runtime>  (894) 
52.729506

>  <generation_date>  (894) 
nan

$$$$
mArh-x0900_0_A_α-5LW0_0_A_δ
     RDKit          3D

 16 18  0  0  0  0  0  0  0  0999 V2000
   -7.6480   14.4960   -0.8100 O   0  0  0  0  0  0  0  0  0  0  0  0
   -6.5280   14.6280   -0.3700 C   0  0  0  0  0  0  0  0  0  0  0  0
   -5.4410   14.9970   -1.1010 N   0  0  0  0  0  0  0  0  0  0  0  0
   -6.0810   14.4320    1.0550 C   0  0  0  0  0  0  0  0  0  0  0  0
   -4.8310   15.3030    1.1120 C   0  0  2  0  0  0  0  0  0  0  0  0
   -4.7350   15.9200   -0.2940 C   0  0  0  0  0  0  0  0  0  0  0  0
   -3.6570   14.6520    1.5600 N   0  0  0  0  0  0  0  0  0  0  0  0
   -2.4740   15.2740    1.0830 C   0  0  2  0  0  0  0  0  0  0  0  0
   -2.4680   15.2370   -0.4490 C   0  0  1  0  0  0  0  0  0  0  0  0
   -1.4160   14.6220    1.7870 N   0  0  0  0  0  0  0  0  0  0  0  0
   -1.0900   14.9080   -0.9660 C   0  0  2  0  0  0  0  0  0  0  0  0
   -3.3090   14.2350   -1.1340 N   0  0  0  0  0  0  0  0  0  0  0  0
   -0.1940   14.3060    1.1260 C   0  0  0  0  0  0  0  0  0  0  0  0
   -1.3380   14.3810   -2.3000 N   0  0  0  0  0  0  0  0  0  0  0  0
   -2.7860   14.3780   -2.4710 C   0  0  0  0  0  0  0  0  0  0  0  0
   -0.4030   13.8930   -0.2280 N   0  0  0  0  0  0  0  0  0  0  0  0
  1  2  2  0
  2  3  1  0
  2  4  1  0
  4  5  1  0
  3  6  1  0
  5  6  1  0
  5  7  1  6
  8  7  1  1
  8  9  1  0
  8 10  1  0
  9 11  1  0
  9 12  1  1
 10 13  1  0
 11 14  1  6
 12 15  1  0
 14 15  1  0
 11 16  1  0
 13 16  1  0
M  END
>  <%Rank>  (895) 
68.244275

>  <N_hits>  (895) 
2

>  <submitter_name>  (895) 
nan

>  <original SMILES>  (895) 
nan

>  <∆G_unbound>  (895) 
1.491099

>  <∆G_bound>  (895) 
1.063487

>  <regarded>  (895) 
mArh-x0900_0_A_α,5LW0_0_A_δ

>  <ref_pdb>  (895) 
nan

>  <smiles>  (895) 
O=C1CC(NC2NCNC3NCNC32)CN1

>  <submitter_email>  (895) 
nan

>  <disregarded>  (895) 


>  <LE>  (895) 
-0.026726

>  <submitter_institution>  (895) 
nan

>  <ref_mols>  (895) 
mArh-x0900_0_A,5LW0_0_A

>  <N_constrained_atoms>  (895) 
16.0

>  <ref_url>  (895) 
nan

>  <method>  (895) 
nan

>  <comRMSD>  (895) 
0.858794

>  <N_unconstrained_atoms>  (895) 
0.0

>  <∆∆G>  (895) 
-0.427612

>  <runtime>  (895) 
24.02591

>  <generation_date>  (895) 
nan

$$$$
5LW0_1_B_β-5CMS_0_M_γ
     RDKit          3D

 16 16  0  0  0  0  0  0  0  0999 V2000
   -1.7740   20.2600   -7.9930 O   0  0  0  0  0  0  0  0  0  0  0  0
   -0.7050   19.0250   -7.7280 P   0  0  0  0  0  0  0  0  0  0  0  0
   -0.6090   18.2770   -6.2330 O   0  0  0  0  0  0  0  0  0  0  0  0
    0.3670   20.0310   -7.3680 O   0  0  0  0  0  0  0  0  0  0  0  0
    0.0730   18.4130   -8.9620 O   0  0  0  0  0  0  0  0  0  0  0  0
   -1.9310   17.4570   -5.7670 P   0  0  0  0  0  0  0  0  0  0  0  0
   -1.2800   16.0570   -5.5450 O   0  0  0  0  0  0  0  0  0  0  0  0
   -2.9240   16.6430   -6.8420 O   0  0  0  0  0  0  0  0  0  0  0  0
   -2.4900   17.4250   -4.3010 O   0  0  0  0  0  0  0  0  0  0  0  0
   -0.1050   15.6540   -4.9100 C   0  0  1  0  0  0  0  0  0  0  0  0
   -0.1950   15.7100   -3.5250 O   0  0  0  0  0  0  0  0  0  0  0  0
    0.2190   14.2380   -5.1980 C   0  0  1  0  0  0  0  0  0  0  0  0
    1.5560   13.8800   -4.9170 O   0  0  0  0  0  0  0  0  0  0  0  0
   -1.0800   14.6690   -3.2120 C   0  0  0  0  0  0  0  0  0  0  0  0
   -0.5950   13.5140   -4.1170 C   0  0  1  0  0  0  0  0  0  0  0  0
   -1.6190   12.8410   -4.7320 O   0  0  0  0  0  0  0  0  0  0  0  0
  1  2  1  0
  2  3  1  0
  2  4  1  0
  2  5  1  0
  3  6  1  0
  6  7  1  0
  6  8  1  0
  6  9  1  0
 10  7  1  6
 10 11  1  0
 10 12  1  0
 12 13  1  1
 11 14  1  0
 12 15  1  0
 14 15  1  0
 15 16  1  6
M  CHG  2   4  -1   8  -1
M  END
>  <%Rank>  (896) 
68.320611

>  <N_hits>  (896) 
2

>  <submitter_name>  (896) 
nan

>  <original SMILES>  (896) 
nan

>  <∆G_unbound>  (896) 
1.160673

>  <∆G_bound>  (896) 
-3.781946

>  <regarded>  (896) 
5LW0_1_B_β,5CMS_0_M_γ

>  <ref_pdb>  (896) 
nan

>  <smiles>  (896) 
[O-][PH](O)(O)O[PH]([O-])(O)OC1OCC(O)C1O

>  <submitter_email>  (896) 
nan

>  <disregarded>  (896) 


>  <LE>  (896) 
-0.308914

>  <submitter_institution>  (896) 
nan

>  <ref_mols>  (896) 
5LW0_1_B,5CMS_0_M

>  <N_constrained_atoms>  (896) 
16.0

>  <ref_url>  (896) 
nan

>  <method>  (896) 
nan

>  <comRMSD>  (896) 
1.000929

>  <N_unconstrained_atoms>  (896) 
0.0

>  <∆∆G>  (896) 
-4.942619

>  <runtime>  (896) 
28.991194

>  <generation_date>  (896) 
nan

$$$$
mArh-3vfq_B_0_A_α-mArh-5cms_H_7_H_β
     RDKit          3D

 21 21  0  0  0  0  0  0  0  0999 V2000
   -4.6320   20.4590   -7.0870 C   0  0  0  0  0  0  0  0  0  0  0  0
   -5.6940   21.4560   -7.4790 C   0  0  1  0  0  0  0  0  0  0  0  0
   -5.0160   22.6890   -7.6460 O   0  0  0  0  0  0  0  0  0  0  0  0
   -6.5290   21.1990   -8.7440 C   0  0  1  0  0  0  0  0  0  0  0  0
   -7.9130   21.2670   -8.5810 O   0  0  0  0  0  0  0  0  0  0  0  0
   -5.2970   23.2350   -8.9280 C   0  0  2  0  0  0  0  0  0  0  0  0
   -6.1000   22.2440   -9.7490 C   0  0  2  0  0  0  0  0  0  0  0  0
   -4.0600   23.5150   -9.5560 O   0  0  0  0  0  0  0  0  0  0  0  0
   -7.2790   22.8350  -10.2910 O   0  0  0  0  0  0  0  0  0  0  0  0
   -3.0460   23.4100   -8.5480 C   0  0  0  0  0  0  0  0  0  0  0  0
   -2.5800   21.9750   -8.4310 C   0  0  0  0  0  0  0  0  0  0  0  0
   -1.2690   21.8350   -7.7040 C   0  0  0  0  0  0  0  0  0  0  0  0
   -0.5650   20.8200   -8.3880 O   0  0  0  0  0  0  0  0  0  0  0  0
   -0.3350   19.3940   -7.7150 P   0  0  2  0  0  0  0  0  0  0  0  0
   -1.7450   18.7630   -7.3630 O   0  0  0  0  0  0  0  0  0  0  0  0
    0.7440   19.3170   -6.7110 O   0  0  0  0  0  0  0  0  0  0  0  0
    0.0870   18.5410   -8.9750 O   0  0  0  0  0  0  0  0  0  0  0  0
   -1.9600   17.8180   -6.1270 P   0  0  0  0  0  0  0  0  0  0  0  0
   -0.5540   17.1410   -5.8430 O   0  0  0  0  0  0  0  0  0  0  0  0
   -3.0920   16.8620   -6.1830 O   0  0  0  0  0  0  0  0  0  0  0  0
   -2.0510   18.8140   -4.8820 O   0  0  0  0  0  0  0  0  0  0  0  0
  2  1  1  6
  2  3  1  0
  2  4  1  0
  4  5  1  1
  3  6  1  0
  4  7  1  0
  6  7  1  0
  6  8  1  6
  7  9  1  1
  8 10  1  0
 10 11  1  0
 11 12  1  0
 12 13  1  0
 13 14  1  0
 14 15  1  0
 14 16  2  0
 14 17  1  6
 15 18  1  0
 18 19  1  0
 18 20  2  0
 18 21  1  0
M  END
>  <%Rank>  (897) 
68.396947

>  <N_hits>  (897) 
2

>  <submitter_name>  (897) 
nan

>  <original SMILES>  (897) 
nan

>  <∆G_unbound>  (897) 
0.275418

>  <∆G_bound>  (897) 
-10.374627

>  <regarded>  (897) 
mArh-3vfq_B_0_A_α,mArh-5cms_H_7_H_β

>  <ref_pdb>  (897) 
nan

>  <smiles>  (897) 
CC1OC(OCCCOP(=O)(O)OP(=O)(O)O)C(O)C1O

>  <submitter_email>  (897) 
nan

>  <disregarded>  (897) 


>  <LE>  (897) 
-0.507145

>  <submitter_institution>  (897) 
nan

>  <ref_mols>  (897) 
mArh-3vfq_B_0_A,mArh-5cms_H_7_H

>  <N_constrained_atoms>  (897) 
18.0

>  <ref_url>  (897) 
nan

>  <method>  (897) 
nan

>  <comRMSD>  (897) 
1.062895

>  <N_unconstrained_atoms>  (897) 
3.0

>  <∆∆G>  (897) 
-10.650045

>  <runtime>  (897) 
49.937638

>  <generation_date>  (897) 
nan

$$$$
5FUD_0_A_α-mArh-5cb5_F_1_F_γ
     RDKit          3D

 23 24  0  0  0  0  0  0  0  0999 V2000
   -2.6860   19.1900   -7.0160 O   0  0  0  0  0  0  0  0  0  0  0  0
   -1.4600   19.9260   -7.7100 S   0  0  0  0  0  0  0  0  0  0  0  0
   -0.6730   20.7550   -6.6300 O   0  0  0  0  0  0  0  0  0  0  0  0
   -0.4270   18.9340   -8.3550 O   0  0  0  0  0  0  0  0  0  0  0  0
   -1.8680   21.2400   -8.7690 C   0  0  0  0  0  0  0  0  0  0  0  0
   -2.4630   22.3530   -7.9850 C   0  0  0  0  0  0  0  0  0  0  0  0
    0.5130   18.8250   -7.3060 C   0  0  0  0  0  0  0  0  0  0  0  0
   -0.2150   18.4660   -6.0210 C   0  0  0  0  0  0  0  0  0  0  0  0
   -3.9050   22.4040   -8.0390 N   0  0  0  0  0  0  0  0  0  0  0  0
    0.7390   18.1130   -4.8950 C   0  0  0  0  0  0  0  0  0  0  0  0
   -4.3830   22.6860   -9.4120 C   0  0  0  0  0  0  0  0  0  0  0  0
   -4.2420   23.5350   -7.1980 C   0  0  0  0  0  0  0  0  0  0  0  0
    1.0870   16.6410   -4.8290 C   0  0  0  0  0  0  0  0  0  0  0  0
   -5.9020   22.8870   -9.4390 C   0  0  0  0  0  0  0  0  0  0  0  0
   -5.7180   23.7450   -7.2160 C   0  0  0  0  0  0  0  0  0  0  0  0
   -6.3090   23.8960   -8.5110 O   0  0  0  0  0  0  0  0  0  0  0  0
   -0.0500   15.6950   -4.5680 C   0  0  2  0  0  0  0  0  0  0  0  0
   -0.2540   15.5390   -3.1570 O   0  0  0  0  0  0  0  0  0  0  0  0
    0.0500   14.2920   -5.1500 C   0  0  1  0  0  0  0  0  0  0  0  0
    1.2720   13.5920   -4.9030 O   0  0  0  0  0  0  0  0  0  0  0  0
   -0.8080   14.2360   -2.9570 C   0  0  0  0  0  0  0  0  0  0  0  0
   -1.0550   13.6530   -4.3440 C   0  0  2  0  0  0  0  0  0  0  0  0
   -0.9590   12.2470   -4.3900 O   0  0  0  0  0  0  0  0  0  0  0  0
  2  1  1  0
  2  3  1  0
  2  4  1  0
  2  5  1  0
  5  6  1  0
  4  7  1  0
  7  8  1  0
  6  9  1  0
  8 10  1  0
  9 11  1  0
  9 12  1  0
 10 13  1  0
 11 14  1  0
 12 15  1  0
 14 16  1  0
 15 16  1  0
 17 13  1  1
 17 18  1  0
 17 19  1  0
 19 20  1  1
 18 21  1  0
 19 22  1  0
 21 22  1  0
 22 23  1  1
M  END
>  <%Rank>  (898) 
68.473282

>  <N_hits>  (898) 
2

>  <submitter_name>  (898) 
nan

>  <original SMILES>  (898) 
nan

>  <∆G_unbound>  (898) 
0.773694

>  <∆G_bound>  (898) 
-9.796023

>  <regarded>  (898) 
5FUD_0_A_α,mArh-5cb5_F_1_F_γ

>  <ref_pdb>  (898) 
nan

>  <smiles>  (898) 
OC1COC(CCCCOS(O)(O)CCN2CCOCC2)C1O

>  <submitter_email>  (898) 
nan

>  <disregarded>  (898) 


>  <LE>  (898) 
-0.459553

>  <submitter_institution>  (898) 
nan

>  <ref_mols>  (898) 
5FUD_0_A,mArh-5cb5_F_1_F

>  <N_constrained_atoms>  (898) 
20.0

>  <ref_url>  (898) 
nan

>  <method>  (898) 
nan

>  <comRMSD>  (898) 
1.087644

>  <N_unconstrained_atoms>  (898) 
3.0

>  <∆∆G>  (898) 
-10.569717

>  <runtime>  (898) 
49.75473

>  <generation_date>  (898) 
nan

$$$$
5CMS_0_P_β-mArh-5cb5_O_0_O_β
     RDKit          3D

  9  8  0  0  0  0  0  0  0  0999 V2000
   -0.6110   21.2480   -8.4560 O   0  0  0  0  0  0  0  0  0  0  0  0
   -0.1130   19.8270   -7.9010 P   0  0  0  0  0  0  0  0  0  0  0  0
   -1.2270   19.6200   -6.9030 O   0  0  0  0  0  0  0  0  0  0  0  0
    1.0980   19.6730   -6.8010 O   0  0  0  0  0  0  0  0  0  0  0  0
   -0.5060   18.4300   -8.6910 O   0  0  0  0  0  0  0  0  0  0  0  0
   -1.8200   18.3200   -6.1210 P   0  0  0  0  0  0  0  0  0  0  0  0
   -0.5610   17.5040   -6.3290 O   0  0  0  0  0  0  0  0  0  0  0  0
   -2.7520   17.1920   -6.8240 O   0  0  0  0  0  0  0  0  0  0  0  0
   -1.7170   18.3130   -4.4870 O   0  0  0  0  0  0  0  0  0  0  0  0
  1  2  1  0
  2  3  1  0
  2  4  1  0
  2  5  1  0
  3  6  1  0
  6  7  1  0
  6  8  1  0
  6  9  1  0
M  CHG  2   4  -1   8  -1
M  END
>  <%Rank>  (899) 
68.549618

>  <N_hits>  (899) 
2

>  <submitter_name>  (899) 
nan

>  <original SMILES>  (899) 
nan

>  <∆G_unbound>  (899) 
0.654534

>  <∆G_bound>  (899) 
-4.629828

>  <regarded>  (899) 
5CMS_0_P_β,mArh-5cb5_O_0_O_β

>  <ref_pdb>  (899) 
nan

>  <smiles>  (899) 
[O-][PH](O)(O)O[PH]([O-])(O)O

>  <submitter_email>  (899) 
nan

>  <disregarded>  (899) 


>  <LE>  (899) 
-0.587151

>  <submitter_institution>  (899) 
nan

>  <ref_mols>  (899) 
5CMS_0_P,mArh-5cb5_O_0_O

>  <N_constrained_atoms>  (899) 
9.0

>  <ref_url>  (899) 
nan

>  <method>  (899) 
nan

>  <comRMSD>  (899) 
0.944272

>  <N_unconstrained_atoms>  (899) 
0.0

>  <∆∆G>  (899) 
-5.284362

>  <runtime>  (899) 
25.44053

>  <generation_date>  (899) 
nan

$$$$
mArh-EU0860_0_A_α-mArh-x0962_3_A_α
     RDKit          3D

  9  9  0  0  0  0  0  0  0  0999 V2000
    1.6980    9.5190  -10.1130 C   0  0  0  0  0  0  0  0  0  0  0  0
    0.7600    9.5710   -9.0110 C   0  0  0  0  0  0  0  0  0  0  0  0
   -0.3040    8.7090   -8.8450 C   0  0  0  0  0  0  0  0  0  0  0  0
    2.2550    8.4890  -10.4980 O   0  0  0  0  0  0  0  0  0  0  0  0
    0.6550   10.4300   -7.8760 C   0  0  0  0  0  0  0  0  0  0  0  0
   -0.9250    9.1000   -7.6950 N   0  0  0  0  0  0  0  0  0  0  0  0
   -0.3610   10.1380   -7.1050 N   0  0  0  0  0  0  0  0  0  0  0  0
    1.4300   11.4280   -7.5320 N   0  0  0  0  0  0  0  0  0  0  0  0
   -2.0860    8.5290   -7.0700 C   0  0  0  0  0  0  0  0  0  0  0  0
  1  2  1  0
  2  3  2  0
  1  4  2  0
  2  5  1  0
  3  6  1  0
  5  7  2  0
  6  7  1  0
  5  8  1  0
  6  9  1  0
M  END
>  <%Rank>  (900) 
68.625954

>  <N_hits>  (900) 
2

>  <submitter_name>  (900) 
nan

>  <original SMILES>  (900) 
nan

>  <∆G_unbound>  (900) 
0.061275

>  <∆G_bound>  (900) 
-2.201071

>  <regarded>  (900) 
mArh-EU0860_0_A_α,mArh-x0962_3_A_α

>  <ref_pdb>  (900) 
nan

>  <smiles>  (900) 
Cn1cc(C=O)c(N)n1

>  <submitter_email>  (900) 
nan

>  <disregarded>  (900) 


>  <LE>  (900) 
-0.251372

>  <submitter_institution>  (900) 
nan

>  <ref_mols>  (900) 
mArh-EU0860_0_A,mArh-x0962_3_A

>  <N_constrained_atoms>  (900) 
9.0

>  <ref_url>  (900) 
nan

>  <method>  (900) 
nan

>  <comRMSD>  (900) 
0.776515

>  <N_unconstrained_atoms>  (900) 
0.0

>  <∆∆G>  (900) 
-2.262346

>  <runtime>  (900) 
32.577855

>  <generation_date>  (900) 
nan

$$$$
mArh-5cb5_R_0_R_α-mArh-x0724_0_A_α
     RDKit          3D

 28 30  0  0  0  0  0  0  0  0999 V2000
   -1.6780   21.3730   -8.1300 C   0  0  0  0  0  0  0  0  0  0  0  0
   -3.0910   21.6670   -8.5720 C   0  0  1  0  0  0  0  0  0  0  0  0
   -3.9520   20.6230   -8.0940 O   0  0  0  0  0  0  0  0  0  0  0  0
   -3.6950   22.9720   -8.0900 C   0  0  1  0  0  0  0  0  0  0  0  0
   -4.4520   23.6960   -9.0910 O   0  0  0  0  0  0  0  0  0  0  0  0
   -4.2980   20.8760   -6.7740 C   0  0  2  0  0  0  0  0  0  0  0  0
   -4.6470   22.4250   -7.0090 C   0  0  1  0  0  0  0  0  0  0  0  0
   -3.2600   20.2710   -5.8270 O   0  0  0  0  0  0  0  0  0  0  0  0
   -4.8230   23.3510   -5.9580 O   0  0  0  0  0  0  0  0  0  0  0  0
   -2.5810   18.9120   -6.1710 C   0  0  0  0  0  0  0  0  0  0  0  0
   -1.9670   17.9010   -5.0010 C   0  0  0  0  0  0  0  0  0  0  0  0
   -2.6730   16.4340   -4.6140 C   0  0  0  0  0  0  0  0  0  0  0  0
   -2.2510   15.3990   -3.3860 C   0  0  0  0  0  0  0  0  0  0  0  0
   -3.2090   15.0170   -2.0500 C   0  0  0  0  0  0  0  0  0  0  0  0
   -4.2180   14.7720   -3.0660 C   0  0  0  0  0  0  0  0  0  0  0  0
   -2.8900   14.9270   -3.0780 C   0  0  0  0  0  0  0  0  0  0  0  0
   -5.2490   14.7120   -2.1170 C   0  0  0  0  0  0  0  0  0  0  0  0
   -2.4990   15.0540   -1.6640 C   0  0  0  0  0  0  0  0  0  0  0  0
   -4.8840   14.8380   -0.7680 C   0  0  0  0  0  0  0  0  0  0  0  0
   -5.9410   14.7770    0.2510 N   0  0  0  0  0  0  0  0  0  0  0  0
   -3.4690   15.0120   -0.5500 C   0  0  0  0  0  0  0  0  0  0  0  0
   -7.2490   14.5220   -0.1170 N   0  0  0  0  0  0  0  0  0  0  0  0
   -5.8920   14.9420    1.6340 C   0  0  0  0  0  0  0  0  0  0  0  0
   -7.1910   14.8090    2.1570 C   0  0  0  0  0  0  0  0  0  0  0  0
   -7.9710   14.5450    1.0140 C   0  0  0  0  0  0  0  0  0  0  0  0
   -7.6620   14.9290    3.5780 C   0  0  0  0  0  0  0  0  0  0  0  0
   -8.3550   13.7200    4.0180 N   0  0  0  0  0  0  0  0  0  0  0  0
   -8.6890   13.8330    5.4360 C   0  0  0  0  0  0  0  0  0  0  0  0
  2  1  1  1
  2  3  1  0
  2  4  1  0
  4  5  1  6
  3  6  1  0
  4  7  1  0
  6  7  1  0
  6  8  1  1
  7  9  1  1
  8 10  1  0
 10 11  1  0
 11 12  1  0
 12 13  1  0
 13 14  1  0
 14 15  1  0
 15 16  2  0
 15 17  1  0
 16 18  1  0
 17 19  2  0
 19 20  1  0
 18 21  2  0
 19 21  1  0
 20 22  1  0
 20 23  1  0
 23 24  2  0
 22 25  2  0
 24 25  1  0
 24 26  1  0
 26 27  1  0
 27 28  1  0
M  END
>  <%Rank>  (901) 
68.70229

>  <N_hits>  (901) 
2

>  <submitter_name>  (901) 
nan

>  <original SMILES>  (901) 
nan

>  <∆G_unbound>  (901) 
1.333251

>  <∆G_bound>  (901) 
-2.293907

>  <regarded>  (901) 
mArh-5cb5_R_0_R_α,mArh-x0724_0_A_α

>  <ref_pdb>  (901) 
nan

>  <smiles>  (901) 
CNCc1cnn(-c2cccc(CCCCCOC3OC(C)C(O)C3O)c2)c1

>  <submitter_email>  (901) 
nan

>  <disregarded>  (901) 


>  <LE>  (901) 
-0.129541

>  <submitter_institution>  (901) 
nan

>  <ref_mols>  (901) 
mArh-5cb5_R_0_R,mArh-x0724_0_A

>  <N_constrained_atoms>  (901) 
23.0

>  <ref_url>  (901) 
nan

>  <method>  (901) 
nan

>  <comRMSD>  (901) 
0.944378

>  <N_unconstrained_atoms>  (901) 
5.0

>  <∆∆G>  (901) 
-3.627158

>  <runtime>  (901) 
54.787382

>  <generation_date>  (901) 
nan

$$$$
mArh-5cb5_K_0_K_α-5CMS_0_B_β
     RDKit          3D

 17 17  0  0  0  0  0  0  0  0999 V2000
   -1.9890   21.4660   -7.3850 C   0  0  0  0  0  0  0  0  0  0  0  0
   -0.8240   20.1880   -7.7550 P   0  0  0  0  0  0  0  0  0  0  0  0
   -1.7300   18.9910   -7.4930 O   0  0  0  0  0  0  0  0  0  0  0  0
   -3.0510   21.8750   -8.4290 C   0  0  1  0  0  0  0  0  0  0  0  0
   -0.4690   19.6900   -9.1800 O   0  0  0  0  0  0  0  0  0  0  0  0
    0.1220   19.4010   -6.5840 O   0  0  0  0  0  0  0  0  0  0  0  0
   -4.2680   21.2320   -8.2850 O   0  0  0  0  0  0  0  0  0  0  0  0
   -3.4970   23.3380   -8.2860 C   0  0  1  0  0  0  0  0  0  0  0  0
   -4.3060   23.7440   -9.3450 O   0  0  0  0  0  0  0  0  0  0  0  0
   -1.6070   18.1800   -6.0740 P   0  0  0  0  0  0  0  0  0  0  0  0
   -5.0060   21.8710   -7.3010 C   0  0  2  0  0  0  0  0  0  0  0  0
   -4.3840   23.1950   -7.0480 C   0  0  2  0  0  0  0  0  0  0  0  0
   -5.0700   21.2170   -6.0750 O   0  0  0  0  0  0  0  0  0  0  0  0
   -5.3870   24.1930   -7.0530 O   0  0  0  0  0  0  0  0  0  0  0  0
   -0.5740   16.8760   -5.8640 O   0  0  0  0  0  0  0  0  0  0  0  0
   -2.7000   17.2520   -6.5950 O   0  0  0  0  0  0  0  0  0  0  0  0
   -2.2910   18.7680   -4.7760 O   0  0  0  0  0  0  0  0  0  0  0  0
  1  2  1  0
  2  3  1  0
  4  1  1  1
  2  5  1  0
  2  6  1  0
  4  7  1  0
  4  8  1  0
  8  9  1  6
  3 10  1  0
  7 11  1  0
  8 12  1  0
 11 12  1  0
 11 13  1  1
 12 14  1  6
 10 15  1  0
 10 16  1  0
 10 17  1  0
M  CHG  2   5  -1  16  -1
M  END
>  <%Rank>  (902) 
68.778626

>  <N_hits>  (902) 
2

>  <submitter_name>  (902) 
nan

>  <original SMILES>  (902) 
nan

>  <∆G_unbound>  (902) 
1.818629

>  <∆G_bound>  (902) 
-6.861469

>  <regarded>  (902) 
mArh-5cb5_K_0_K_α,5CMS_0_B_β

>  <ref_pdb>  (902) 
nan

>  <smiles>  (902) 
[O-][PH](O)(O)O[PH]([O-])(O)CC1OC(O)C(O)C1O

>  <submitter_email>  (902) 
nan

>  <disregarded>  (902) 


>  <LE>  (902) 
-0.510594

>  <submitter_institution>  (902) 
nan

>  <ref_mols>  (902) 
mArh-5cb5_K_0_K,5CMS_0_B

>  <N_constrained_atoms>  (902) 
17.0

>  <ref_url>  (902) 
nan

>  <method>  (902) 
nan

>  <comRMSD>  (902) 
1.132044

>  <N_unconstrained_atoms>  (902) 
0.0

>  <∆∆G>  (902) 
-8.680097

>  <runtime>  (902) 
33.397281

>  <generation_date>  (902) 
nan

$$$$
5MQX_0_A_δ-3EW5_0_C_α
     RDKit          3D

 25 26  0  0  0  0  0  0  0  0999 V2000
   -3.9990   15.5610    1.9640 N   0  0  0  0  0  0  0  0  0  0  0  0
   -2.8840   15.1850    1.0720 C   0  0  2  0  0  0  0  0  0  0  0  0
   -3.0550   13.8780    0.4710 C   0  0  2  0  0  0  0  0  0  0  0  0
   -1.6680   15.2990    1.7590 N   0  0  0  0  0  0  0  0  0  0  0  0
   -1.8350   13.6150   -0.4210 C   0  0  1  0  0  0  0  0  0  0  0  0
   -4.1640   13.9470   -0.4740 N   0  0  0  0  0  0  0  0  0  0  0  0
   -0.6360   14.3640    1.4940 C   0  0  0  0  0  0  0  0  0  0  0  0
   -2.1710   14.2550   -1.6420 N   0  0  0  0  0  0  0  0  0  0  0  0
   -3.5580   13.9520   -1.7880 C   0  0  0  0  0  0  0  0  0  0  0  0
   -0.5690   13.9830    0.1280 N   0  0  0  0  0  0  0  0  0  0  0  0
   -1.9100   15.6930   -1.7200 C   0  0  0  0  0  0  0  0  0  0  0  0
   -0.8920   15.9160   -2.8700 C   0  0  0  0  0  0  0  0  0  0  0  0
   -1.6440   16.5140   -4.0560 C   0  0  0  0  0  0  0  0  0  0  0  0
   -1.0980   17.8500   -4.5160 C   0  0  0  0  0  0  0  0  0  0  0  0
   -0.5260   17.7640   -5.9050 C   0  0  0  0  0  0  0  0  0  0  0  0
   -1.3010   18.4210   -6.8520 O   0  0  0  0  0  0  0  0  0  0  0  0
   -0.7420   19.8300   -7.3720 P   0  0  0  0  0  0  0  0  0  0  0  0
   -2.1010   20.4500   -7.8350 O   0  0  0  0  0  0  0  0  0  0  0  0
   -0.2450   19.9690   -8.9060 O   0  0  0  0  0  0  0  0  0  0  0  0
    0.7320   19.5080   -7.1750 O   0  0  0  0  0  0  0  0  0  0  0  0
   -2.5000   21.6220   -7.1750 C   0  0  0  0  0  0  0  0  0  0  0  0
   -3.9120   21.8880   -7.6380 C   0  0  2  0  0  0  0  0  0  0  0  0
   -3.9710   23.2210   -8.3530 C   0  0  0  0  0  0  0  0  0  0  0  0
   -4.7670   21.8790   -6.5390 O   0  0  0  0  0  0  0  0  0  0  0  0
   -4.5680   22.9410   -9.6060 O   0  0  0  0  0  0  0  0  0  0  0  0
  2  1  1  1
  2  3  1  0
  2  4  1  0
  3  5  1  0
  3  6  1  6
  4  7  1  0
  5  8  1  0
  6  9  1  0
  8  9  1  0
  5 10  1  1
  7 10  1  0
  8 11  1  0
 11 12  1  0
 12 13  1  0
 13 14  1  0
 14 15  1  0
 15 16  1  0
 16 17  1  0
 17 18  1  0
 17 19  1  0
 17 20  1  0
 18 21  1  0
 21 22  1  0
 22 23  1  0
 22 24  1  1
 23 25  1  0
M  CHG  1  20  -1
M  END
>  <%Rank>  (903) 
68.854962

>  <N_hits>  (903) 
2

>  <submitter_name>  (903) 
nan

>  <original SMILES>  (903) 
nan

>  <∆G_unbound>  (903) 
1.537831

>  <∆G_bound>  (903) 
-8.007318

>  <regarded>  (903) 
5MQX_0_A_δ,3EW5_0_C_α

>  <ref_pdb>  (903) 
nan

>  <smiles>  (903) 
NC1NCNC2C1NCN2CCCCCO[PH]([O-])(O)OC[C@@H](O)CO

>  <submitter_email>  (903) 
nan

>  <disregarded>  (903) 


>  <LE>  (903) 
-0.381806

>  <submitter_institution>  (903) 
nan

>  <ref_mols>  (903) 
5MQX_0_A,3EW5_0_C

>  <N_constrained_atoms>  (903) 
20.0

>  <ref_url>  (903) 
nan

>  <method>  (903) 
nan

>  <comRMSD>  (903) 
1.005583

>  <N_unconstrained_atoms>  (903) 
5.0

>  <∆∆G>  (903) 
-9.545149

>  <runtime>  (903) 
46.814424

>  <generation_date>  (903) 
nan

$$$$
mArh-x0837_0_A_α-5CMS_0_B_δ
     RDKit          3D

 17 19  0  0  0  0  0  0  0  0999 V2000
   -7.7380   14.8870   -0.1190 O   0  0  0  0  0  0  0  0  0  0  0  0
   -6.5120   14.8460   -0.0180 C   0  0  0  0  0  0  0  0  0  0  0  0
   -5.9050   14.5130    1.1580 N   0  0  0  0  0  0  0  0  0  0  0  0
   -5.5680   15.1520   -1.1590 C   0  0  0  0  0  0  0  0  0  0  0  0
   -4.7380   13.8120    1.2000 C   0  0  0  0  0  0  0  0  0  0  0  0
   -4.4240   14.1250   -1.2690 C   0  0  2  0  0  0  0  0  0  0  0  0
   -4.0180   13.6090    0.0960 C   0  0  0  0  0  0  0  0  0  0  0  0
   -3.2270   14.6710   -2.1030 C   0  0  2  0  0  0  0  0  0  0  0  0
   -1.9940   13.8720   -1.9560 N   0  0  0  0  0  0  0  0  0  0  0  0
   -2.8680   16.0100   -1.7190 N   0  0  0  0  0  0  0  0  0  0  0  0
   -1.0820   14.6300   -1.1040 C   0  0  1  0  0  0  0  0  0  0  0  0
   -1.9340   15.7790   -0.6210 C   0  0  2  0  0  0  0  0  0  0  0  0
   -0.6280   13.7390   -0.0630 N   0  0  0  0  0  0  0  0  0  0  0  0
   -2.6000   15.2660    0.6530 C   0  0  2  0  0  0  0  0  0  0  0  0
   -3.6060   16.1610    1.1970 N   0  0  0  0  0  0  0  0  0  0  0  0
   -0.3960   14.4570    1.1830 C   0  0  0  0  0  0  0  0  0  0  0  0
   -1.6280   15.0460    1.6700 N   0  0  0  0  0  0  0  0  0  0  0  0
  1  2  2  0
  2  3  1  0
  2  4  1  0
  3  5  1  0
  6  4  1  1
  5  7  2  0
  6  7  1  0
  6  8  1  0
  8  9  1  1
  8 10  1  0
 11  9  1  6
 12 10  1  6
 11 12  1  0
 11 13  1  0
 12 14  1  0
 14 15  1  1
 13 16  1  0
 14 17  1  0
 16 17  1  0
M  END
>  <%Rank>  (904) 
68.931298

>  <N_hits>  (904) 
2

>  <submitter_name>  (904) 
nan

>  <original SMILES>  (904) 
nan

>  <∆G_unbound>  (904) 
1.588912

>  <∆G_bound>  (904) 
1.167035

>  <regarded>  (904) 
mArh-x0837_0_A_α,5CMS_0_B_δ

>  <ref_pdb>  (904) 
nan

>  <smiles>  (904) 
NC1NCNC2NC(C3C=CNC(=O)C3)NC12

>  <submitter_email>  (904) 
nan

>  <disregarded>  (904) 


>  <LE>  (904) 
-0.024816

>  <submitter_institution>  (904) 
nan

>  <ref_mols>  (904) 
mArh-x0837_0_A,5CMS_0_B

>  <N_constrained_atoms>  (904) 
17.0

>  <ref_url>  (904) 
nan

>  <method>  (904) 
nan

>  <comRMSD>  (904) 
0.895726

>  <N_unconstrained_atoms>  (904) 
0.0

>  <∆∆G>  (904) 
-0.421877

>  <runtime>  (904) 
38.971696

>  <generation_date>  (904) 
nan

$$$$
5CB5_0_A_δ-mArh-x0471_0_A_α
     RDKit          3D

 21 23  0  0  0  0  0  0  0  0999 V2000
   -4.0240   15.7780    2.1370 N   0  0  0  0  0  0  0  0  0  0  0  0
   -3.1380   14.8340    1.5250 C   0  0  1  0  0  0  0  0  0  0  0  0
   -3.5340   14.3450    0.1690 C   0  0  2  0  0  0  0  0  0  0  0  0
   -1.8420   15.4740    1.4870 N   0  0  0  0  0  0  0  0  0  0  0  0
   -2.6650   14.9670   -0.8730 C   0  0  2  0  0  0  0  0  0  0  0  0
   -4.9160   14.3620   -0.4600 C   0  0  2  0  0  0  0  0  0  0  0  0
   -0.8320   14.7870    0.7370 C   0  0  0  0  0  0  0  0  0  0  0  0
   -3.1070   14.3770   -2.0900 N   0  0  0  0  0  0  0  0  0  0  0  0
   -4.5750   14.5480   -1.9700 C   0  0  0  0  0  0  0  0  0  0  0  0
   -1.2240   14.7890   -0.6650 N   0  0  0  0  0  0  0  0  0  0  0  0
   -6.0470   15.2310    0.0500 N   0  0  0  0  0  0  0  0  0  0  0  0
   -5.5080   13.0490   -0.1160 C   0  0  0  0  0  0  0  0  0  0  0  0
   -6.9590   14.4000    0.5570 C   0  0  0  0  0  0  0  0  0  0  0  0
   -6.6450   13.0980    0.4760 N   0  0  0  0  0  0  0  0  0  0  0  0
   -8.3200   14.7270    1.2050 C   0  0  0  0  0  0  0  0  0  0  0  0
   -8.3800   14.2260    2.5810 N   0  0  0  0  0  0  0  0  0  0  0  0
   -8.8460   15.0360    3.6060 C   0  0  0  0  0  0  0  0  0  0  0  0
   -9.3910   16.1150    3.4080 O   0  0  0  0  0  0  0  0  0  0  0  0
   -8.6330   14.4510    5.0090 C   0  0  0  0  0  0  0  0  0  0  0  0
   -9.8800   13.7020    5.4800 C   0  0  0  0  0  0  0  0  0  0  0  0
   -8.2670   15.5510    6.0030 C   0  0  0  0  0  0  0  0  0  0  0  0
  2  1  1  6
  3  2  1  1
  2  4  1  0
  3  5  1  0
  3  6  1  0
  4  7  1  0
  5  8  1  6
  6  9  1  6
  8  9  1  0
  5 10  1  0
  7 10  1  0
  6 11  1  0
  6 12  1  0
 11 13  2  0
 12 14  2  0
 13 14  1  0
 13 15  1  0
 15 16  1  0
 16 17  1  0
 17 18  2  0
 17 19  1  0
 19 20  1  0
 19 21  1  0
M  END
>  <%Rank>  (905) 
69.007634

>  <N_hits>  (905) 
2

>  <submitter_name>  (905) 
nan

>  <original SMILES>  (905) 
nan

>  <∆G_unbound>  (905) 
2.190439

>  <∆G_bound>  (905) 
-2.360246

>  <regarded>  (905) 
5CB5_0_A_δ,mArh-x0471_0_A_α

>  <ref_pdb>  (905) 
nan

>  <smiles>  (905) 
CC(C)C(=O)NCC1=NC2(C=N1)CNC1NCNC(N)C12

>  <submitter_email>  (905) 
nan

>  <disregarded>  (905) 


>  <LE>  (905) 
-0.216699

>  <submitter_institution>  (905) 
nan

>  <ref_mols>  (905) 
5CB5_0_A,mArh-x0471_0_A

>  <N_constrained_atoms>  (905) 
21.0

>  <ref_url>  (905) 
nan

>  <method>  (905) 
nan

>  <comRMSD>  (905) 
1.074936

>  <N_unconstrained_atoms>  (905) 
0.0

>  <∆∆G>  (905) 
-4.550685

>  <runtime>  (905) 
25.693568

>  <generation_date>  (905) 
nan

$$$$
5CB5_0_H_β-5CMS_0_H_β
     RDKit          3D

 10  9  0  0  0  0  0  0  0  0999 V2000
   -1.7050   20.6820   -8.1440 O   0  0  0  0  0  0  0  0  0  0  0  0
   -0.2700   19.9790   -8.0810 P   0  0  0  0  0  0  0  0  0  0  0  0
   -0.3740   19.1480   -6.8050 O   0  0  0  0  0  0  0  0  0  0  0  0
    1.0520   20.7960   -7.4990 O   0  0  0  0  0  0  0  0  0  0  0  0
   -0.0120   18.5490   -8.9100 O   0  0  0  0  0  0  0  0  0  0  0  0
   -1.7010   18.4230   -6.1300 P   0  0  0  0  0  0  0  0  0  0  0  0
   -0.8490   17.3350   -5.4640 O   0  0  0  0  0  0  0  0  0  0  0  0
   -2.6340   19.3790   -6.8430 O   0  0  0  0  0  0  0  0  0  0  0  0
   -2.1420   19.0740   -4.6850 O   0  0  0  0  0  0  0  0  0  0  0  0
   -2.6030   17.2520   -6.7930 O   0  0  0  0  0  0  0  0  0  0  0  0
  1  2  1  0
  2  3  1  0
  2  4  1  0
  2  5  1  0
  3  6  1  0
  6  7  1  0
  6  8  1  0
  6  9  1  0
  6 10  1  0
M  CHG  3   4  -1   8  -1  10  -1
M  END
>  <%Rank>  (906) 
69.083969

>  <N_hits>  (906) 
2

>  <submitter_name>  (906) 
nan

>  <original SMILES>  (906) 
nan

>  <∆G_unbound>  (906) 
0.97406

>  <∆G_bound>  (906) 
-5.311601

>  <regarded>  (906) 
5CB5_0_H_β,5CMS_0_H_β

>  <ref_pdb>  (906) 
nan

>  <smiles>  (906) 
[O-][PH](O)(O)OP([O-])([O-])(O)O

>  <submitter_email>  (906) 
nan

>  <disregarded>  (906) 


>  <LE>  (906) 
-0.628566

>  <submitter_institution>  (906) 
nan

>  <ref_mols>  (906) 
5CB5_0_H,5CMS_0_H

>  <N_constrained_atoms>  (906) 
10.0

>  <ref_url>  (906) 
nan

>  <method>  (906) 
nan

>  <comRMSD>  (906) 
1.014069

>  <N_unconstrained_atoms>  (906) 
0.0

>  <∆∆G>  (906) 
-6.285661

>  <runtime>  (906) 
24.621954

>  <generation_date>  (906) 
nan

$$$$
mArh-5cb5_C_0_C_α-mArh-5cb5_L_0_L_γ
     RDKit          3D

 22 23  0  0  0  0  0  0  0  0999 V2000
   -3.7220   22.1360  -10.0780 C   0  0  0  0  0  0  0  0  0  0  0  0
   -3.2520   22.5190   -8.7510 C   0  0  2  0  0  0  0  0  0  0  0  0
   -3.5750   21.3960   -7.9670 O   0  0  0  0  0  0  0  0  0  0  0  0
   -4.1020   23.6840   -8.2610 C   0  0  1  0  0  0  0  0  0  0  0  0
   -4.8490   24.1750   -9.3790 O   0  0  0  0  0  0  0  0  0  0  0  0
   -4.0320   22.0060   -6.8030 C   0  0  1  0  0  0  0  0  0  0  0  0
   -5.0460   23.0260   -7.2690 C   0  0  1  0  0  0  0  0  0  0  0  0
   -4.4040   21.0220   -5.8900 O   0  0  0  0  0  0  0  0  0  0  0  0
   -5.4850   23.9560   -6.2620 O   0  0  0  0  0  0  0  0  0  0  0  0
   -3.0950   20.6010   -5.4790 C   0  0  0  0  0  0  0  0  0  0  0  0
   -2.4870   19.3800   -6.1720 C   0  0  0  0  0  0  0  0  0  0  0  0
   -1.3040   19.7700   -7.0670 C   0  0  0  0  0  0  0  0  0  0  0  0
   -0.1820   18.7440   -6.9530 C   0  0  0  0  0  0  0  0  0  0  0  0
   -0.3940   17.7350   -5.8090 C   0  0  0  0  0  0  0  0  0  0  0  0
    0.9000   17.0570   -5.3810 C   0  0  0  0  0  0  0  0  0  0  0  0
    0.7690   15.7980   -4.4940 C   0  0  1  0  0  0  0  0  0  0  0  0
   -0.2940   16.0360   -3.5590 O   0  0  0  0  0  0  0  0  0  0  0  0
    0.4410   14.4400   -5.1490 C   0  0  1  0  0  0  0  0  0  0  0  0
    1.5100   13.5130   -5.2310 O   0  0  0  0  0  0  0  0  0  0  0  0
   -0.7220   14.7600   -3.0970 C   0  0  0  0  0  0  0  0  0  0  0  0
   -0.6980   13.8590   -4.3120 C   0  0  2  0  0  0  0  0  0  0  0  0
   -0.4410   12.4990   -4.0010 O   0  0  0  0  0  0  0  0  0  0  0  0
  2  1  1  6
  2  3  1  0
  2  4  1  0
  4  5  1  6
  3  6  1  0
  4  7  1  0
  6  7  1  0
  6  8  1  1
  7  9  1  1
  8 10  1  0
 10 11  1  0
 11 12  1  0
 12 13  1  0
 13 14  1  0
 14 15  1  0
 16 15  1  6
 16 17  1  0
 16 18  1  0
 18 19  1  1
 17 20  1  0
 18 21  1  0
 20 21  1  0
 21 22  1  1
M  END
>  <%Rank>  (907) 
69.160305

>  <N_hits>  (907) 
2

>  <submitter_name>  (907) 
nan

>  <original SMILES>  (907) 
nan

>  <∆G_unbound>  (907) 
0.187336

>  <∆G_bound>  (907) 
-12.126319

>  <regarded>  (907) 
mArh-5cb5_C_0_C_α,mArh-5cb5_L_0_L_γ

>  <ref_pdb>  (907) 
nan

>  <smiles>  (907) 
CC1OC(OCCCCCCC2OCC(O)C2O)C(O)C1O

>  <submitter_email>  (907) 
nan

>  <disregarded>  (907) 


>  <LE>  (907) 
-0.559712

>  <submitter_institution>  (907) 
nan

>  <ref_mols>  (907) 
mArh-5cb5_C_0_C,mArh-5cb5_L_0_L

>  <N_constrained_atoms>  (907) 
17.0

>  <ref_url>  (907) 
nan

>  <method>  (907) 
nan

>  <comRMSD>  (907) 
1.023145

>  <N_unconstrained_atoms>  (907) 
5.0

>  <∆∆G>  (907) 
-12.313655

>  <runtime>  (907) 
44.030849

>  <generation_date>  (907) 
nan

$$$$
5CMS_0_O_β-mArh-5cms_D_3_D_β
     RDKit          3D

 16 16  0  0  0  0  0  0  0  0999 V2000
   -0.0960   21.0540   -7.7330 O   0  0  0  0  0  0  0  0  0  0  0  0
   -0.0130   19.3990   -7.6910 P   0  0  0  0  0  0  0  0  0  0  0  0
   -0.1020   18.5190   -6.2840 O   0  0  0  0  0  0  0  0  0  0  0  0
   -1.5060   19.4460   -7.7110 O   0  0  0  0  0  0  0  0  0  0  0  0
    0.1670   18.5780   -9.0260 O   0  0  0  0  0  0  0  0  0  0  0  0
   -1.6080   18.1280   -5.8850 P   0  0  0  0  0  0  0  0  0  0  0  0
   -1.3120   16.8630   -4.9810 O   0  0  0  0  0  0  0  0  0  0  0  0
   -2.5930   17.0980   -6.7810 O   0  0  0  0  0  0  0  0  0  0  0  0
   -2.3030   19.0270   -4.7570 O   0  0  0  0  0  0  0  0  0  0  0  0
   -0.1330   16.1010   -4.7820 C   0  0  1  0  0  0  0  0  0  0  0  0
    0.1330   15.9850   -3.4120 O   0  0  0  0  0  0  0  0  0  0  0  0
   -0.1360   14.6790   -5.2610 C   0  0  1  0  0  0  0  0  0  0  0  0
    1.1190   14.2210   -5.7070 O   0  0  0  0  0  0  0  0  0  0  0  0
   -0.7150   14.9460   -2.9920 C   0  0  0  0  0  0  0  0  0  0  0  0
   -0.3230   13.8590   -3.9880 C   0  0  1  0  0  0  0  0  0  0  0  0
   -1.2960   12.9360   -4.2330 O   0  0  0  0  0  0  0  0  0  0  0  0
  1  2  1  0
  2  3  1  0
  2  4  1  0
  2  5  1  0
  3  6  1  0
  6  7  1  0
  6  8  1  0
  6  9  1  0
 10  7  1  1
 10 11  1  0
 10 12  1  0
 12 13  1  1
 11 14  1  0
 12 15  1  0
 14 15  1  0
 15 16  1  6
M  CHG  2   4  -1   8  -1
M  END
>  <%Rank>  (908) 
69.236641

>  <N_hits>  (908) 
2

>  <submitter_name>  (908) 
nan

>  <original SMILES>  (908) 
nan

>  <∆G_unbound>  (908) 
1.160673

>  <∆G_bound>  (908) 
-6.199559

>  <regarded>  (908) 
5CMS_0_O_β,mArh-5cms_D_3_D_β

>  <ref_pdb>  (908) 
nan

>  <smiles>  (908) 
[O-][PH](O)(O)O[PH]([O-])(O)OC1OCC(O)C1O

>  <submitter_email>  (908) 
nan

>  <disregarded>  (908) 


>  <LE>  (908) 
-0.460015

>  <submitter_institution>  (908) 
nan

>  <ref_mols>  (908) 
5CMS_0_O,mArh-5cms_D_3_D

>  <N_constrained_atoms>  (908) 
16.0

>  <ref_url>  (908) 
nan

>  <method>  (908) 
nan

>  <comRMSD>  (908) 
1.098008

>  <N_unconstrained_atoms>  (908) 
0.0

>  <∆∆G>  (908) 
-7.360232

>  <runtime>  (908) 
32.955653

>  <generation_date>  (908) 
nan

$$$$
mArh-x0524_0_A_α-5MQX_0_A_δ
     RDKit          3D

 32 35  0  0  0  0  0  0  0  0999 V2000
   -0.4100    8.5490   -8.1400 N   0  0  0  0  0  0  0  0  0  0  0  0
   -0.8280    9.6000   -7.3470 C   0  0  0  0  0  0  0  0  0  0  0  0
   -2.1730    9.2870   -6.7140 C   0  0  0  0  0  0  0  0  0  0  0  0
    0.6340    8.5510   -9.0810 C   0  0  0  0  0  0  0  0  0  0  0  0
   -0.2360   10.6510   -7.1510 O   0  0  0  0  0  0  0  0  0  0  0  0
    1.7460    7.7250   -9.0030 C   0  0  0  0  0  0  0  0  0  0  0  0
    0.5310    9.4390  -10.1540 C   0  0  0  0  0  0  0  0  0  0  0  0
   -2.0260    8.7680   -5.2870 C   0  0  0  0  0  0  0  0  0  0  0  0
    2.7440    7.7840   -9.9820 C   0  0  0  0  0  0  0  0  0  0  0  0
    1.5280    9.4950  -11.1310 C   0  0  0  0  0  0  0  0  0  0  0  0
   -2.6540    9.7370   -4.2860 C   0  0  0  0  0  0  0  0  0  0  0  0
    2.6500    8.6680  -11.0630 C   0  0  0  0  0  0  0  0  0  0  0  0
    3.6750    8.6840  -12.0180 N   0  0  0  0  0  0  0  0  0  0  0  0
   -1.6210   10.4460   -3.4070 C   0  0  0  0  0  0  0  0  0  0  0  0
   -1.5190   11.9580   -3.5820 C   0  0  0  0  0  0  0  0  0  0  0  0
    3.9540    9.5610  -13.0750 C   0  0  0  0  0  0  0  0  0  0  0  0
   -1.0030   12.6490   -2.3200 C   0  0  0  0  0  0  0  0  0  0  0  0
    3.2210   10.7280  -13.3190 C   0  0  0  0  0  0  0  0  0  0  0  0
    5.0210    9.2610  -13.9330 C   0  0  0  0  0  0  0  0  0  0  0  0
    3.5370   11.5680  -14.3800 C   0  0  0  0  0  0  0  0  0  0  0  0
    5.3400   10.1010  -14.9980 C   0  0  0  0  0  0  0  0  0  0  0  0
   -1.9870   13.5590   -1.7310 N   0  0  0  0  0  0  0  0  0  0  0  0
    4.5990   11.2580  -15.2240 C   0  0  0  0  0  0  0  0  0  0  0  0
   -1.7280   13.7620   -0.3460 C   0  0  2  0  0  0  0  0  0  0  0  0
   -3.3620   13.0190   -1.6620 C   0  0  0  0  0  0  0  0  0  0  0  0
   -2.9960   14.4680    0.0520 C   0  0  1  0  0  0  0  0  0  0  0  0
   -4.0120   13.5440   -0.4460 N   0  0  0  0  0  0  0  0  0  0  0  0
   -0.4910   14.4050   -0.0310 N   0  0  0  0  0  0  0  0  0  0  0  0
   -0.4400   14.4570    1.3990 C   0  0  0  0  0  0  0  0  0  0  0  0
   -2.8840   14.6520    1.5440 C   0  0  2  0  0  0  0  0  0  0  0  0
   -3.8810   15.5480    2.1070 N   0  0  0  0  0  0  0  0  0  0  0  0
   -1.6010   15.2210    1.7790 N   0  0  0  0  0  0  0  0  0  0  0  0
  1  2  1  0
  2  3  1  0
  1  4  1  0
  2  5  2  0
  4  6  2  0
  4  7  1  0
  3  8  1  0
  6  9  1  0
  7 10  2  0
  8 11  1  0
  9 12  2  0
 10 12  1  0
 12 13  1  0
 11 14  1  0
 14 15  1  0
 13 16  1  0
 15 17  1  0
 16 18  2  0
 16 19  1  0
 18 20  1  0
 19 21  2  0
 17 22  1  0
 20 23  2  0
 21 23  1  0
 22 24  1  0
 22 25  1  0
 24 26  1  0
 25 27  1  0
 26 27  1  1
 24 28  1  6
 28 29  1  0
 26 30  1  0
 30 31  1  6
 29 32  1  0
 30 32  1  0
M  END
>  <%Rank>  (909) 
69.312977

>  <N_hits>  (909) 
2

>  <submitter_name>  (909) 
nan

>  <original SMILES>  (909) 
nan

>  <∆G_unbound>  (909) 
0.430103

>  <∆G_bound>  (909) 
-6.52108

>  <regarded>  (909) 
mArh-x0524_0_A_α,5MQX_0_A_δ

>  <ref_pdb>  (909) 
nan

>  <smiles>  (909) 
NC1NCNC2C1NCN2CCCCCCC(=O)Nc1ccc(Nc2ccccc2)cc1

>  <submitter_email>  (909) 
nan

>  <disregarded>  (909) 


>  <LE>  (909) 
-0.217224

>  <submitter_institution>  (909) 
nan

>  <ref_mols>  (909) 
mArh-x0524_0_A,5MQX_0_A

>  <N_constrained_atoms>  (909) 
27.0

>  <ref_url>  (909) 
nan

>  <method>  (909) 
nan

>  <comRMSD>  (909) 
1.08159

>  <N_unconstrained_atoms>  (909) 
5.0

>  <∆∆G>  (909) 
-6.951183

>  <runtime>  (909) 
58.418666

>  <generation_date>  (909) 
nan

$$$$
mArh-5cb5_L_0_L_γ-mArh-6ywk_E_2_E_α
     RDKit          3D

 24 25  0  0  0  0  0  0  0  0999 V2000
   -0.5990   12.5470   -4.0230 O   0  0  0  0  0  0  0  0  0  0  0  0
    0.0230   13.7430   -3.5620 C   0  0  2  0  0  0  0  0  0  0  0  0
   -1.0090   14.8350   -3.3810 C   0  0  0  0  0  0  0  0  0  0  0  0
    0.9510   14.3510   -4.6030 C   0  0  1  0  0  0  0  0  0  0  0  0
    0.6980   13.9240   -5.9220 O   0  0  0  0  0  0  0  0  0  0  0  0
   -0.3560   16.0940   -3.6370 O   0  0  0  0  0  0  0  0  0  0  0  0
    0.8610   15.8690   -4.3570 C   0  0  2  0  0  0  0  0  0  0  0  0
    0.8650   16.7020   -5.6270 C   0  0  0  0  0  0  0  0  0  0  0  0
    0.8050   18.2080   -5.4770 C   0  0  0  0  0  0  0  0  0  0  0  0
   -0.1620   18.6940   -6.4950 N   0  0  0  0  0  0  0  0  0  0  0  0
    0.1190   19.8190   -7.4900 S   0  0  1  0  0  0  0  0  0  0  0  0
    1.2260   20.7550   -7.5480 O   0  0  0  0  0  0  0  0  0  0  0  0
    0.2650   18.7580   -8.6930 O   0  0  0  0  0  0  0  0  0  0  0  0
   -1.4060   20.4990   -8.0710 C   0  0  0  0  0  0  0  0  0  0  0  0
   -1.5640   21.9280   -7.6330 C   0  0  0  0  0  0  0  0  0  0  0  0
   -2.8480   22.5710   -8.0130 N   0  0  0  0  0  0  0  0  0  0  0  0
   -3.2580   23.3360   -6.8340 C   0  0  0  0  0  0  0  0  0  0  0  0
   -3.8950   21.5820   -8.2720 C   0  0  0  0  0  0  0  0  0  0  0  0
   -4.6520   23.9430   -6.7480 C   0  0  0  0  0  0  0  0  0  0  0  0
   -5.1670   21.6520   -7.3960 C   0  0  0  0  0  0  0  0  0  0  0  0
   -5.6910   23.0070   -7.1370 N   0  0  0  0  0  0  0  0  0  0  0  0
   -6.4970   23.5010   -8.2630 C   0  0  0  0  0  0  0  0  0  0  0  0
   -5.7650   23.6840   -9.5600 C   0  0  0  0  0  0  0  0  0  0  0  0
   -6.4690   22.8420  -10.4790 O   0  0  0  0  0  0  0  0  0  0  0  0
  2  1  1  6
  2  3  1  0
  2  4  1  0
  4  5  1  6
  3  6  1  0
  4  7  1  0
  6  7  1  0
  7  8  1  6
  8  9  1  0
  9 10  1  0
 10 11  2  0
 11 12  2  0
 11 13  1  6
 11 14  1  0
 14 15  1  0
 15 16  1  0
 16 17  1  0
 16 18  1  0
 17 19  1  0
 18 20  1  0
 19 21  1  0
 20 21  1  0
 21 22  1  0
 22 23  1  0
 23 24  1  0
M  END
>  <%Rank>  (910) 
69.389313

>  <N_hits>  (910) 
2

>  <submitter_name>  (910) 
nan

>  <original SMILES>  (910) 
nan

>  <∆G_unbound>  (910) 
2.122031

>  <∆G_bound>  (910) 
-11.066826

>  <regarded>  (910) 
mArh-5cb5_L_0_L_γ,mArh-6ywk_E_2_E_α

>  <ref_pdb>  (910) 
nan

>  <smiles>  (910) 
O=S(O)(CCN1CCN(CCO)CC1)=NCCC1OCC(O)C1O

>  <submitter_email>  (910) 
nan

>  <disregarded>  (910) 


>  <LE>  (910) 
-0.549536

>  <submitter_institution>  (910) 
nan

>  <ref_mols>  (910) 
mArh-5cb5_L_0_L,mArh-6ywk_E_2_E

>  <N_constrained_atoms>  (910) 
23.0

>  <ref_url>  (910) 
nan

>  <method>  (910) 
nan

>  <comRMSD>  (910) 
1.260758

>  <N_unconstrained_atoms>  (910) 
1.0

>  <∆∆G>  (910) 
-13.188857

>  <runtime>  (910) 
38.997009

>  <generation_date>  (910) 
nan

$$$$
5CB5_0_F_α-mArh-mac-120_0_A_α
     RDKit          3D

 26 27  0  0  0  0  0  0  0  0999 V2000
   -1.7560   21.0880   -8.5410 C   0  0  0  0  0  0  0  0  0  0  0  0
   -3.0610   21.6210   -9.1100 C   0  0  2  0  0  0  0  0  0  0  0  0
   -3.2610   23.0800   -8.8390 C   0  0  1  0  0  0  0  0  0  0  0  0
   -4.1880   20.9640   -8.5110 O   0  0  0  0  0  0  0  0  0  0  0  0
   -4.2370   23.7350   -9.6940 O   0  0  0  0  0  0  0  0  0  0  0  0
   -3.7500   23.0160   -7.4460 C   0  0  2  0  0  0  0  0  0  0  0  0
   -4.4520   21.6320   -7.3040 C   0  0  2  0  0  0  0  0  0  0  0  0
   -4.5920   24.1090   -7.5930 O   0  0  0  0  0  0  0  0  0  0  0  0
   -4.1490   20.8310   -6.1180 O   0  0  0  0  0  0  0  0  0  0  0  0
   -5.1820   24.3060   -6.4090 C   0  0  1  0  0  0  0  0  0  0  0  0
   -2.7920   20.2930   -5.9110 C   0  0  0  0  0  0  0  0  0  0  0  0
   -4.5420   25.5510   -5.8210 C   0  0  0  0  0  0  0  0  0  0  0  0
   -6.5160   24.3480   -6.7810 O   0  0  0  0  0  0  0  0  0  0  0  0
   -2.6430   18.8560   -6.5210 C   0  0  0  0  0  0  0  0  0  0  0  0
   -2.2390   17.6430   -5.5820 C   0  0  0  0  0  0  0  0  0  0  0  0
   -3.1650   16.3510   -5.6640 C   0  0  0  0  0  0  0  0  0  0  0  0
   -3.5230   15.5930   -4.3260 C   0  0  0  0  0  0  0  0  0  0  0  0
   -4.8920   14.7910   -4.2120 C   0  0  0  0  0  0  0  0  0  0  0  0
   -5.7070   14.8720   -2.8560 C   0  0  0  0  0  0  0  0  0  0  0  0
   -4.7370   14.7590   -1.7360 C   0  0  0  0  0  0  0  0  0  0  0  0
   -4.9000   15.2050   -0.4160 C   0  0  0  0  0  0  0  0  0  0  0  0
   -3.5600   14.1470   -2.0920 C   0  0  0  0  0  0  0  0  0  0  0  0
   -3.8390   15.0080    0.4690 C   0  0  0  0  0  0  0  0  0  0  0  0
   -2.5830   13.9970   -1.1560 C   0  0  0  0  0  0  0  0  0  0  0  0
   -3.9000   15.4250    1.7920 N   0  0  0  0  0  0  0  0  0  0  0  0
   -2.6940   14.4130    0.1090 N   0  0  0  0  0  0  0  0  0  0  0  0
  2  1  1  1
  2  3  1  0
  2  4  1  0
  3  5  1  6
  3  6  1  0
  4  7  1  0
  6  7  1  0
  6  8  1  6
  7  9  1  1
  8 10  1  0
  9 11  1  0
 10 12  1  6
 10 13  1  0
 11 14  1  0
 14 15  1  0
 15 16  1  0
 16 17  1  0
 17 18  1  0
 18 19  1  0
 19 20  1  0
 20 21  2  0
 20 22  1  0
 21 23  1  0
 22 24  2  0
 23 25  1  0
 23 26  2  0
 24 26  1  0
M  END
>  <%Rank>  (911) 
69.465649

>  <N_hits>  (911) 
2

>  <submitter_name>  (911) 
nan

>  <original SMILES>  (911) 
nan

>  <∆G_unbound>  (911) 
0.20928

>  <∆G_bound>  (911) 
-9.471815

>  <regarded>  (911) 
5CB5_0_F_α,mArh-mac-120_0_A_α

>  <ref_pdb>  (911) 
nan

>  <smiles>  (911) 
CC1OC(OCCCCCCCc2ccnc(N)c2)C(O[C@@H](C)O)C1O

>  <submitter_email>  (911) 
nan

>  <disregarded>  (911) 


>  <LE>  (911) 
-0.37235

>  <submitter_institution>  (911) 
nan

>  <ref_mols>  (911) 
5CB5_0_F,mArh-mac-120_0_A

>  <N_constrained_atoms>  (911) 
20.0

>  <ref_url>  (911) 
nan

>  <method>  (911) 
nan

>  <comRMSD>  (911) 
0.992327

>  <N_unconstrained_atoms>  (911) 
6.0

>  <∆∆G>  (911) 
-9.681095

>  <runtime>  (911) 
40.508432

>  <generation_date>  (911) 
nan

$$$$
5CMS_0_L_β-5CMS_0_H_β
     RDKit          3D

  9  8  0  0  0  0  0  0  0  0999 V2000
   -1.6760   20.4360   -8.0210 O   0  0  0  0  0  0  0  0  0  0  0  0
   -0.2420   19.7190   -7.9780 P   0  0  0  0  0  0  0  0  0  0  0  0
   -0.3690   18.8180   -6.7840 O   0  0  0  0  0  0  0  0  0  0  0  0
    1.0690   20.4760   -7.3420 O   0  0  0  0  0  0  0  0  0  0  0  0
    0.0050   18.3770   -8.9260 O   0  0  0  0  0  0  0  0  0  0  0  0
   -1.7200   18.3070   -6.0360 P   0  0  0  0  0  0  0  0  0  0  0  0
   -1.0170   17.0740   -5.4910 O   0  0  0  0  0  0  0  0  0  0  0  0
   -2.8250   17.3590   -6.7620 O   0  0  0  0  0  0  0  0  0  0  0  0
   -2.0410   18.9770   -4.5690 O   0  0  0  0  0  0  0  0  0  0  0  0
  1  2  1  0
  2  3  1  0
  2  4  1  0
  2  5  1  0
  3  6  1  0
  6  7  1  0
  6  8  1  0
  6  9  1  0
M  CHG  2   4  -1   8  -1
M  END
>  <%Rank>  (912) 
69.541985

>  <N_hits>  (912) 
2

>  <submitter_name>  (912) 
nan

>  <original SMILES>  (912) 
nan

>  <∆G_unbound>  (912) 
0.654534

>  <∆G_bound>  (912) 
-5.292201

>  <regarded>  (912) 
5CMS_0_L_β,5CMS_0_H_β

>  <ref_pdb>  (912) 
nan

>  <smiles>  (912) 
[O-][PH](O)(O)O[PH]([O-])(O)O

>  <submitter_email>  (912) 
nan

>  <disregarded>  (912) 


>  <LE>  (912) 
-0.660748

>  <submitter_institution>  (912) 
nan

>  <ref_mols>  (912) 
5CMS_0_L,5CMS_0_H

>  <N_constrained_atoms>  (912) 
9.0

>  <ref_url>  (912) 
nan

>  <method>  (912) 
nan

>  <comRMSD>  (912) 
1.004183

>  <N_unconstrained_atoms>  (912) 
0.0

>  <∆∆G>  (912) 
-5.946735

>  <runtime>  (912) 
27.19939

>  <generation_date>  (912) 
nan

$$$$
6FX7_0_A_δ-5CB5_0_P_α
     RDKit          3D

 24 26  0  0  0  0  0  0  0  0999 V2000
   -4.2240   15.3760    1.5310 N   0  0  0  0  0  0  0  0  0  0  0  0
   -3.1690   14.6330    0.8710 C   0  0  1  0  0  0  0  0  0  0  0  0
   -2.9760   14.9760   -0.6360 C   0  0  1  0  0  0  0  0  0  0  0  0
   -1.9970   15.0030    1.6660 N   0  0  0  0  0  0  0  0  0  0  0  0
   -1.5980   14.4280   -0.9910 C   0  0  1  0  0  0  0  0  0  0  0  0
   -3.7420   14.4770   -1.7900 N   0  0  0  0  0  0  0  0  0  0  0  0
   -0.7330   14.4760    1.1740 C   0  0  0  0  0  0  0  0  0  0  0  0
   -1.4420   14.7830   -2.3710 N   0  0  0  0  0  0  0  0  0  0  0  0
   -2.7700   14.6070   -2.9440 C   0  0  2  0  0  0  0  0  0  0  0  0
   -0.5200   14.9230   -0.1820 N   0  0  0  0  0  0  0  0  0  0  0  0
   -3.1240   15.7150   -3.9850 C   0  0  0  0  0  0  0  0  0  0  0  0
   -1.9750   16.4080   -4.8260 C   0  0  0  0  0  0  0  0  0  0  0  0
   -2.3850   17.4270   -5.9390 C   0  0  0  0  0  0  0  0  0  0  0  0
   -2.1550   18.9650   -5.7110 C   0  0  0  0  0  0  0  0  0  0  0  0
   -3.0270   19.8410   -6.6580 C   0  0  0  0  0  0  0  0  0  0  0  0
   -3.8030   20.8900   -6.0210 O   0  0  0  0  0  0  0  0  0  0  0  0
   -4.6550   21.6260   -6.9430 C   0  0  2  0  0  0  0  0  0  0  0  0
   -4.4810   21.1680   -8.2880 O   0  0  0  0  0  0  0  0  0  0  0  0
   -4.2910   23.1340   -6.9290 C   0  0  2  0  0  0  0  0  0  0  0  0
   -5.4520   23.9960   -6.7890 O   0  0  0  0  0  0  0  0  0  0  0  0
   -3.4810   21.9980   -8.8890 C   0  0  1  0  0  0  0  0  0  0  0  0
   -3.7030   23.3930   -8.3250 C   0  0  1  0  0  0  0  0  0  0  0  0
   -2.0910   21.4780   -8.5740 C   0  0  0  0  0  0  0  0  0  0  0  0
   -4.5770   24.1570   -9.1430 O   0  0  0  0  0  0  0  0  0  0  0  0
  2  1  1  1
  2  3  1  0
  2  4  1  0
  3  5  1  0
  3  6  1  6
  4  7  1  0
  5  8  1  6
  6  9  1  0
  8  9  1  0
  5 10  1  0
  7 10  1  0
  9 11  1  1
 11 12  1  0
 12 13  1  0
 13 14  1  0
 14 15  1  0
 15 16  1  0
 17 16  1  1
 17 18  1  0
 17 19  1  0
 19 20  1  6
 18 21  1  0
 19 22  1  0
 21 22  1  0
 21 23  1  1
 22 24  1  6
M  END
>  <%Rank>  (913) 
69.618321

>  <N_hits>  (913) 
2

>  <submitter_name>  (913) 
nan

>  <original SMILES>  (913) 
nan

>  <∆G_unbound>  (913) 
0.335171

>  <∆G_bound>  (913) 
-7.889409

>  <regarded>  (913) 
6FX7_0_A_δ,5CB5_0_P_α

>  <ref_pdb>  (913) 
nan

>  <smiles>  (913) 
CC1OC(OCCCCCC2NC3NCNC(N)C3N2)C(O)C1O

>  <submitter_email>  (913) 
nan

>  <disregarded>  (913) 


>  <LE>  (913) 
-0.342691

>  <submitter_institution>  (913) 
nan

>  <ref_mols>  (913) 
6FX7_0_A,5CB5_0_P

>  <N_constrained_atoms>  (913) 
19.0

>  <ref_url>  (913) 
nan

>  <method>  (913) 
nan

>  <comRMSD>  (913) 
0.97928

>  <N_unconstrained_atoms>  (913) 
5.0

>  <∆∆G>  (913) 
-8.22458

>  <runtime>  (913) 
45.311271

>  <generation_date>  (913) 
nan

$$$$
5CMS_0_M_α-mArh-6mea_A_0_A_β
     RDKit          3D

 17 17  0  0  0  0  0  0  0  0999 V2000
   -2.1030   21.1870   -7.9790 C   0  0  0  0  0  0  0  0  0  0  0  0
   -0.6040   20.2150   -7.7540 P   0  0  2  0  0  0  0  0  0  0  0  0
   -0.7000   19.5290   -6.3300 O   0  0  0  0  0  0  0  0  0  0  0  0
   -2.1750   22.0530   -9.2220 C   0  0  1  0  0  0  0  0  0  0  0  0
    0.6900   20.9480   -7.8940 O   0  0  0  0  0  0  0  0  0  0  0  0
   -0.6610   18.9010   -8.6760 O   0  0  0  0  0  0  0  0  0  0  0  0
   -3.0010   21.5020  -10.2790 O   0  0  0  0  0  0  0  0  0  0  0  0
   -2.6690   23.4700   -8.9870 C   0  0  1  0  0  0  0  0  0  0  0  0
   -1.5690   24.3440   -9.0490 O   0  0  0  0  0  0  0  0  0  0  0  0
   -1.5280   18.2380   -5.9530 P   0  0  0  0  0  0  0  0  0  0  0  0
   -4.1210   22.3700  -10.5380 C   0  0  1  0  0  0  0  0  0  0  0  0
   -3.8060   23.7510  -10.0040 C   0  0  2  0  0  0  0  0  0  0  0  0
   -4.4930   22.4190  -11.8990 O   0  0  0  0  0  0  0  0  0  0  0  0
   -3.5100   24.6470  -11.0990 O   0  0  0  0  0  0  0  0  0  0  0  0
   -0.4540   17.0800   -5.7490 O   0  0  0  0  0  0  0  0  0  0  0  0
   -2.6820   17.8350   -6.7830 O   0  0  0  0  0  0  0  0  0  0  0  0
   -1.8530   18.5660   -4.4450 O   0  0  0  0  0  0  0  0  0  0  0  0
  1  2  1  0
  2  3  1  0
  4  1  1  1
  2  5  2  0
  2  6  1  6
  4  7  1  0
  4  8  1  0
  8  9  1  6
  3 10  1  0
  7 11  1  0
  8 12  1  0
 11 12  1  0
 11 13  1  6
 12 14  1  6
 10 15  1  0
 10 16  2  0
 10 17  1  0
M  END
>  <%Rank>  (914) 
69.694656

>  <N_hits>  (914) 
2

>  <submitter_name>  (914) 
nan

>  <original SMILES>  (914) 
nan

>  <∆G_unbound>  (914) 
1.703844

>  <∆G_bound>  (914) 
-6.587282

>  <regarded>  (914) 
5CMS_0_M_α,mArh-6mea_A_0_A_β

>  <ref_pdb>  (914) 
nan

>  <smiles>  (914) 
O=P(O)(O)OP(=O)(O)CC1OC(O)C(O)C1O

>  <submitter_email>  (914) 
nan

>  <disregarded>  (914) 


>  <LE>  (914) 
-0.487713

>  <submitter_institution>  (914) 
nan

>  <ref_mols>  (914) 
5CMS_0_M,mArh-6mea_A_0_A

>  <N_constrained_atoms>  (914) 
17.0

>  <ref_url>  (914) 
nan

>  <method>  (914) 
nan

>  <comRMSD>  (914) 
1.143592

>  <N_unconstrained_atoms>  (914) 
0.0

>  <∆∆G>  (914) 
-8.291126

>  <runtime>  (914) 
36.590383

>  <generation_date>  (914) 
nan

$$$$
mArh-5cb5_H_0_H_α-2FAV_0_B_γ
     RDKit          3D

 22 23  0  0  0  0  0  0  0  0999 V2000
   -2.2370   21.7310   -8.4140 C   0  0  0  0  0  0  0  0  0  0  0  0
   -3.5820   22.0640   -9.0520 C   0  0  1  0  0  0  0  0  0  0  0  0
   -4.5480   21.1560   -8.5150 O   0  0  0  0  0  0  0  0  0  0  0  0
   -4.0840   23.4760   -8.7140 C   0  0  1  0  0  0  0  0  0  0  0  0
   -4.5110   24.1440   -9.9020 O   0  0  0  0  0  0  0  0  0  0  0  0
   -5.1360   21.8360   -7.4260 C   0  0  2  0  0  0  0  0  0  0  0  0
   -5.3400   23.2640   -7.8790 C   0  0  1  0  0  0  0  0  0  0  0  0
   -4.2420   21.9600   -6.3530 O   0  0  0  0  0  0  0  0  0  0  0  0
   -5.4640   24.1580   -6.7560 O   0  0  0  0  0  0  0  0  0  0  0  0
   -3.8470   20.7360   -5.8190 C   0  0  0  0  0  0  0  0  0  0  0  0
   -2.3580   20.5040   -5.6190 C   0  0  0  0  0  0  0  0  0  0  0  0
   -1.8080   19.1540   -6.1280 C   0  0  0  0  0  0  0  0  0  0  0  0
   -1.2710   18.3150   -4.9590 C   0  0  0  0  0  0  0  0  0  0  0  0
    0.2590   18.1370   -4.8760 C   0  0  0  0  0  0  0  0  0  0  0  0
    0.7490   16.7870   -5.3830 C   0  0  0  0  0  0  0  0  0  0  0  0
    1.1840   15.7410   -4.3410 C   0  0  1  0  0  0  0  0  0  0  0  0
    0.2820   15.7570   -3.1990 O   0  0  0  0  0  0  0  0  0  0  0  0
    1.1410   14.3100   -4.8940 C   0  0  1  0  0  0  0  0  0  0  0  0
    2.1610   13.4320   -4.4450 O   0  0  0  0  0  0  0  0  0  0  0  0
   -0.3160   14.4600   -3.0850 C   0  0  0  0  0  0  0  0  0  0  0  0
   -0.2400   13.8500   -4.4680 C   0  0  2  0  0  0  0  0  0  0  0  0
   -0.3540   12.4360   -4.4930 O   0  0  0  0  0  0  0  0  0  0  0  0
  2  1  1  1
  2  3  1  0
  2  4  1  0
  4  5  1  6
  3  6  1  0
  4  7  1  0
  6  7  1  0
  6  8  1  1
  7  9  1  1
  8 10  1  0
 10 11  1  0
 11 12  1  0
 12 13  1  0
 13 14  1  0
 14 15  1  0
 16 15  1  6
 16 17  1  0
 16 18  1  0
 18 19  1  1
 17 20  1  0
 18 21  1  0
 20 21  1  0
 21 22  1  1
M  END
>  <%Rank>  (915) 
69.770992

>  <N_hits>  (915) 
2

>  <submitter_name>  (915) 
nan

>  <original SMILES>  (915) 
nan

>  <∆G_unbound>  (915) 
0.187336

>  <∆G_bound>  (915) 
-11.776481

>  <regarded>  (915) 
mArh-5cb5_H_0_H_α,2FAV_0_B_γ

>  <ref_pdb>  (915) 
nan

>  <smiles>  (915) 
CC1OC(OCCCCCCC2OCC(O)C2O)C(O)C1O

>  <submitter_email>  (915) 
nan

>  <disregarded>  (915) 


>  <LE>  (915) 
-0.54381

>  <submitter_institution>  (915) 
nan

>  <ref_mols>  (915) 
mArh-5cb5_H_0_H,2FAV_0_B

>  <N_constrained_atoms>  (915) 
17.0

>  <ref_url>  (915) 
nan

>  <method>  (915) 
nan

>  <comRMSD>  (915) 
1.025644

>  <N_unconstrained_atoms>  (915) 
5.0

>  <∆∆G>  (915) 
-11.963817

>  <runtime>  (915) 
30.274711

>  <generation_date>  (915) 
nan

$$$$
mArh-6woj_A_0_A_α-MAC-120_0_A_α
     RDKit          3D

 23 24  0  0  0  0  0  0  0  0999 V2000
   -1.5860   21.8760   -7.7270 C   0  0  0  0  0  0  0  0  0  0  0  0
   -3.0140   21.9680   -8.2530 C   0  0  1  0  0  0  0  0  0  0  0  0
   -3.6460   21.0040   -7.4870 O   0  0  0  0  0  0  0  0  0  0  0  0
   -3.7840   23.2850   -7.9240 C   0  0  1  0  0  0  0  0  0  0  0  0
   -4.4920   23.8500   -9.0380 O   0  0  0  0  0  0  0  0  0  0  0  0
   -3.7340   21.7420   -6.3140 C   0  0  1  0  0  0  0  0  0  0  0  0
   -4.7450   22.7680   -6.8360 C   0  0  1  0  0  0  0  0  0  0  0  0
   -3.8990   20.7640   -5.3010 O   0  0  0  0  0  0  0  0  0  0  0  0
   -5.0930   23.8620   -5.9740 O   0  0  0  0  0  0  0  0  0  0  0  0
   -2.5890   20.0820   -5.2880 C   0  0  0  0  0  0  0  0  0  0  0  0
   -2.4380   18.7540   -6.1300 C   0  0  0  0  0  0  0  0  0  0  0  0
   -2.2290   17.3700   -5.4150 C   0  0  0  0  0  0  0  0  0  0  0  0
   -3.2460   16.1800   -5.5670 C   0  0  0  0  0  0  0  0  0  0  0  0
   -3.6750   15.4290   -4.2500 C   0  0  0  0  0  0  0  0  0  0  0  0
   -5.0970   14.7310   -4.1930 C   0  0  0  0  0  0  0  0  0  0  0  0
   -5.8570   14.8300   -2.8100 C   0  0  0  0  0  0  0  0  0  0  0  0
   -4.8540   14.7140   -1.7160 C   0  0  0  0  0  0  0  0  0  0  0  0
   -4.9710   15.1840   -0.4020 C   0  0  0  0  0  0  0  0  0  0  0  0
   -3.7000   14.0760   -2.0910 C   0  0  0  0  0  0  0  0  0  0  0  0
   -3.8880   14.9820    0.4580 C   0  0  0  0  0  0  0  0  0  0  0  0
   -2.6980   13.9250   -1.1820 C   0  0  0  0  0  0  0  0  0  0  0  0
   -3.9000   15.4220    1.7740 N   0  0  0  0  0  0  0  0  0  0  0  0
   -2.7660   14.3640    0.0790 N   0  0  0  0  0  0  0  0  0  0  0  0
  2  1  1  1
  2  3  1  0
  2  4  1  0
  4  5  1  6
  3  6  1  0
  4  7  1  0
  6  7  1  0
  6  8  1  1
  7  9  1  1
  8 10  1  0
 10 11  1  0
 11 12  1  0
 12 13  1  0
 13 14  1  0
 14 15  1  0
 15 16  1  0
 16 17  1  0
 17 18  2  0
 17 19  1  0
 18 20  1  0
 19 21  2  0
 20 22  1  0
 20 23  2  0
 21 23  1  0
M  END
>  <%Rank>  (916) 
69.847328

>  <N_hits>  (916) 
2

>  <submitter_name>  (916) 
nan

>  <original SMILES>  (916) 
nan

>  <∆G_unbound>  (916) 
0.042984

>  <∆G_bound>  (916) 
-11.817567

>  <regarded>  (916) 
mArh-6woj_A_0_A_α,MAC-120_0_A_α

>  <ref_pdb>  (916) 
nan

>  <smiles>  (916) 
CC1OC(OCCCCCCCc2ccnc(N)c2)C(O)C1O

>  <submitter_email>  (916) 
nan

>  <disregarded>  (916) 


>  <LE>  (916) 
-0.515676

>  <submitter_institution>  (916) 
nan

>  <ref_mols>  (916) 
mArh-6woj_A_0_A,MAC-120_0_A

>  <N_constrained_atoms>  (916) 
17.0

>  <ref_url>  (916) 
nan

>  <method>  (916) 
nan

>  <comRMSD>  (916) 
0.984445

>  <N_unconstrained_atoms>  (916) 
6.0

>  <∆∆G>  (916) 
-11.860551

>  <runtime>  (916) 
35.803058

>  <generation_date>  (916) 
nan

$$$$
5FUD_0_A_α-5CB5_0_O_δ
     RDKit          3D

 27 29  0  0  0  0  0  0  0  0999 V2000
   -1.2550   20.2870   -6.0960 O   0  0  0  0  0  0  0  0  0  0  0  0
   -0.7380   20.3080   -7.6050 S   0  0  0  0  0  0  0  0  0  0  0  0
    0.4490   21.3590   -7.7910 O   0  0  0  0  0  0  0  0  0  0  0  0
   -0.2530   18.8440   -7.9590 O   0  0  0  0  0  0  0  0  0  0  0  0
   -2.1380   20.9500   -8.4050 C   0  0  0  0  0  0  0  0  0  0  0  0
   -2.4360   22.3350   -7.9780 C   0  0  0  0  0  0  0  0  0  0  0  0
    0.6660   18.5220   -6.8920 C   0  0  0  0  0  0  0  0  0  0  0  0
   -0.0150   18.2000   -5.5780 C   0  0  0  0  0  0  0  0  0  0  0  0
   -3.8600   22.5280   -7.9670 N   0  0  0  0  0  0  0  0  0  0  0  0
   -1.0000   17.0510   -5.7050 C   0  0  0  0  0  0  0  0  0  0  0  0
   -4.4220   22.7380   -9.3080 C   0  0  0  0  0  0  0  0  0  0  0  0
   -4.1150   23.7030   -7.1810 C   0  0  0  0  0  0  0  0  0  0  0  0
   -1.9840   17.1220   -4.5780 C   0  0  0  0  0  0  0  0  0  0  0  0
   -5.9440   22.8780   -9.2110 C   0  0  0  0  0  0  0  0  0  0  0  0
   -5.6020   23.8410   -7.0740 C   0  0  0  0  0  0  0  0  0  0  0  0
   -2.6860   15.8370   -4.1040 C   0  0  0  0  0  0  0  0  0  0  0  0
   -6.2840   23.9590   -8.3380 O   0  0  0  0  0  0  0  0  0  0  0  0
   -2.5110   15.5560   -2.6110 C   0  0  2  0  0  0  0  0  0  0  0  0
   -1.4440   14.6500   -2.2870 N   0  0  0  0  0  0  0  0  0  0  0  0
   -3.6450   15.2290   -1.7240 N   0  0  0  0  0  0  0  0  0  0  0  0
   -1.4370   15.0310   -0.9190 C   0  0  1  0  0  0  0  0  0  0  0  0
   -2.8890   14.7810   -0.5170 C   0  0  1  0  0  0  0  0  0  0  0  0
   -0.5190   14.2900   -0.1260 N   0  0  0  0  0  0  0  0  0  0  0  0
   -2.9430   15.4460    0.8590 C   0  0  1  0  0  0  0  0  0  0  0  0
   -4.2420   15.3790    1.5110 N   0  0  0  0  0  0  0  0  0  0  0  0
   -0.6010   14.8490    1.2000 C   0  0  0  0  0  0  0  0  0  0  0  0
   -1.9710   14.7950    1.7160 N   0  0  0  0  0  0  0  0  0  0  0  0
  2  1  1  0
  2  3  1  0
  2  4  1  0
  2  5  1  0
  5  6  1  0
  4  7  1  0
  7  8  1  0
  6  9  1  0
  8 10  1  0
  9 11  1  0
  9 12  1  0
 10 13  1  0
 11 14  1  0
 12 15  1  0
 13 16  1  0
 14 17  1  0
 15 17  1  0
 18 16  1  6
 18 19  1  0
 18 20  1  0
 21 19  1  6
 22 20  1  6
 21 22  1  0
 21 23  1  0
 22 24  1  0
 24 25  1  1
 23 26  1  0
 24 27  1  0
 26 27  1  0
M  END
>  <%Rank>  (917) 
69.923664

>  <N_hits>  (917) 
2

>  <submitter_name>  (917) 
nan

>  <original SMILES>  (917) 
nan

>  <∆G_unbound>  (917) 
2.097814

>  <∆G_bound>  (917) 
-9.732092

>  <regarded>  (917) 
5FUD_0_A_α,5CB5_0_O_δ

>  <ref_pdb>  (917) 
nan

>  <smiles>  (917) 
NC1NCNC2NC(CCCCCOS(O)(O)CCN3CCOCC3)NC12

>  <submitter_email>  (917) 
nan

>  <disregarded>  (917) 


>  <LE>  (917) 
-0.438145

>  <submitter_institution>  (917) 
nan

>  <ref_mols>  (917) 
5FUD_0_A,5CB5_0_O

>  <N_constrained_atoms>  (917) 
22.0

>  <ref_url>  (917) 
nan

>  <method>  (917) 
nan

>  <comRMSD>  (917) 
1.105503

>  <N_unconstrained_atoms>  (917) 
5.0

>  <∆∆G>  (917) 
-11.829907

>  <runtime>  (917) 
33.763118

>  <generation_date>  (917) 
nan

$$$$
mArh-5cb5_M_1_M_α-1HJZ_0_B_α
     RDKit          3D

 17 17  0  0  0  0  0  0  0  0999 V2000
   -1.8780   21.6990   -7.5990 C   0  0  2  0  0  0  0  0  0  0  0  0
   -1.3580   23.0950   -7.6100 C   0  0  0  0  0  0  0  0  0  0  0  0
   -0.5250   20.4900   -7.7180 S   0  0  0  0  0  0  0  0  0  0  0  0
   -3.0970   21.6630   -8.5140 C   0  0  2  0  0  0  0  0  0  0  0  0
    0.8520   21.3010   -7.7810 O   0  0  0  0  0  0  0  0  0  0  0  0
   -0.6450   19.5050   -8.9520 O   0  0  0  0  0  0  0  0  0  0  0  0
   -0.5690   19.6300   -6.3720 O   0  0  0  0  0  0  0  0  0  0  0  0
   -3.7660   23.0500   -8.6100 C   0  0  1  0  0  0  0  0  0  0  0  0
   -4.0720   20.7560   -7.9370 O   0  0  0  0  0  0  0  0  0  0  0  0
   -3.6900   23.7070   -9.8600 O   0  0  0  0  0  0  0  0  0  0  0  0
   -5.2080   22.7480   -8.4530 C   0  0  1  0  0  0  0  0  0  0  0  0
   -5.3040   21.4290   -7.6810 C   0  0  2  0  0  0  0  0  0  0  0  0
   -5.9180   23.8880   -7.9790 O   0  0  0  0  0  0  0  0  0  0  0  0
   -5.5170   21.5350   -6.2750 O   0  0  0  0  0  0  0  0  0  0  0  0
   -7.0310   23.8470   -8.7590 C   0  0  0  0  0  0  0  0  0  0  0  0
   -7.5750   25.1490   -9.2530 C   0  0  0  0  0  0  0  0  0  0  0  0
   -7.5460   22.7940   -9.0550 O   0  0  0  0  0  0  0  0  0  0  0  0
  1  2  1  6
  1  3  1  0
  1  4  1  0
  3  5  1  0
  3  6  1  0
  3  7  1  0
  4  8  1  0
  4  9  1  1
  8 10  1  6
  8 11  1  0
  9 12  1  0
 11 12  1  0
 11 13  1  1
 12 14  1  1
 13 15  1  0
 15 16  1  0
 15 17  2  0
M  END
>  <%Rank>  (918) 
70.0

>  <N_hits>  (918) 
2

>  <submitter_name>  (918) 
nan

>  <original SMILES>  (918) 
nan

>  <∆G_unbound>  (918) 
1.634704

>  <∆G_bound>  (918) 
-5.153004

>  <regarded>  (918) 
mArh-5cb5_M_1_M_α,1HJZ_0_B_α

>  <ref_pdb>  (918) 
nan

>  <smiles>  (918) 
CC(=O)OC1C(O)OC(C(C)S(O)(O)O)C1O

>  <submitter_email>  (918) 
nan

>  <disregarded>  (918) 


>  <LE>  (918) 
-0.399277

>  <submitter_institution>  (918) 
nan

>  <ref_mols>  (918) 
mArh-5cb5_M_1_M,1HJZ_0_B

>  <N_constrained_atoms>  (918) 
17.0

>  <ref_url>  (918) 
nan

>  <method>  (918) 
nan

>  <comRMSD>  (918) 
1.103575

>  <N_unconstrained_atoms>  (918) 
0.0

>  <∆∆G>  (918) 
-6.787708

>  <runtime>  (918) 
31.821664

>  <generation_date>  (918) 
nan

$$$$
mArh-4j4z_0_A_α-6FX7_0_A_α
     RDKit          3D

 28 29  0  0  0  0  0  0  0  0999 V2000
   -0.2720   16.9740   -3.3250 O   0  0  0  0  0  0  0  0  0  0  0  0
   -0.8410   16.6560   -4.6110 S   0  0  0  0  0  0  0  0  0  0  0  0
   -0.0140   16.6170   -5.7950 O   0  0  0  0  0  0  0  0  0  0  0  0
   -2.0720   17.6730   -4.9070 O   0  0  0  0  0  0  0  0  0  0  0  0
   -1.6570   15.0800   -4.4630 C   0  0  0  0  0  0  0  0  0  0  0  0
   -0.5830   14.0060   -4.3470 C   0  0  0  0  0  0  0  0  0  0  0  0
   -1.6880   18.9040   -5.4780 C   0  0  0  0  0  0  0  0  0  0  0  0
   -1.5280   18.7560   -6.9870 C   0  0  0  0  0  0  0  0  0  0  0  0
   -1.1230   12.6440   -4.3670 N   0  0  0  0  0  0  0  0  0  0  0  0
   -1.2220   20.0870   -7.6680 C   0  0  0  0  0  0  0  0  0  0  0  0
   -0.2300   11.6830   -3.7450 C   0  0  0  0  0  0  0  0  0  0  0  0
   -1.3350   12.1240   -5.6970 C   0  0  0  0  0  0  0  0  0  0  0  0
   -2.1700   21.1480   -7.1220 C   0  0  0  0  0  0  0  0  0  0  0  0
   -0.6200   10.1940   -3.9830 C   0  0  0  0  0  0  0  0  0  0  0  0
   -2.2090   10.8600   -5.6980 C   0  0  0  0  0  0  0  0  0  0  0  0
   -2.1340   22.4210   -7.9520 C   0  0  0  0  0  0  0  0  0  0  0  0
   -1.8850    9.8590   -4.6930 N   0  0  0  0  0  0  0  0  0  0  0  0
   -1.8760    8.5030   -5.2810 C   0  0  0  0  0  0  0  0  0  0  0  0
   -3.2680   22.4160   -8.9670 C   0  0  2  0  0  0  0  0  0  0  0  0
   -3.1570    7.6690   -5.0620 C   0  0  0  0  0  0  0  0  0  0  0  0
   -3.4270   23.6610   -9.6520 O   0  0  0  0  0  0  0  0  0  0  0  0
   -4.6450   22.1150   -8.4210 C   0  0  1  0  0  0  0  0  0  0  0  0
   -3.4600    7.4390   -3.6930 O   0  0  0  0  0  0  0  0  0  0  0  0
   -4.9070   22.6680   -7.1260 O   0  0  0  0  0  0  0  0  0  0  0  0
   -4.6520   23.5170  -10.3640 C   0  0  2  0  0  0  0  0  0  0  0  0
   -5.5790   22.7190   -9.4580 C   0  0  2  0  0  0  0  0  0  0  0  0
   -4.4950   22.8440  -11.5990 O   0  0  0  0  0  0  0  0  0  0  0  0
   -6.5650   23.5370   -8.8530 O   0  0  0  0  0  0  0  0  0  0  0  0
  1  2  2  0
  2  3  2  0
  2  4  1  0
  2  5  1  0
  5  6  1  0
  4  7  1  0
  7  8  1  0
  6  9  1  0
  8 10  1  0
  9 11  1  0
  9 12  1  0
 10 13  1  0
 11 14  1  0
 12 15  1  0
 13 16  1  0
 14 17  1  0
 15 17  1  0
 17 18  1  0
 19 16  1  1
 18 20  1  0
 19 21  1  0
 19 22  1  0
 20 23  1  0
 22 24  1  1
 21 25  1  0
 22 26  1  0
 25 26  1  0
 25 27  1  6
 26 28  1  1
M  END
>  <%Rank>  (919) 
70.076336

>  <N_hits>  (919) 
2

>  <submitter_name>  (919) 
nan

>  <original SMILES>  (919) 
nan

>  <∆G_unbound>  (919) 
1.115172

>  <∆G_bound>  (919) 
-8.838189

>  <regarded>  (919) 
mArh-4j4z_0_A_α,6FX7_0_A_α

>  <ref_pdb>  (919) 
nan

>  <smiles>  (919) 
O=S(=O)(CCN1CCN(CCO)CC1)OCCCCCC1OC(O)C(O)C1O

>  <submitter_email>  (919) 
nan

>  <disregarded>  (919) 


>  <LE>  (919) 
-0.355477

>  <submitter_institution>  (919) 
nan

>  <ref_mols>  (919) 
mArh-4j4z_0_A,6FX7_0_A

>  <N_constrained_atoms>  (919) 
24.0

>  <ref_url>  (919) 
nan

>  <method>  (919) 
nan

>  <comRMSD>  (919) 
1.128736

>  <N_unconstrained_atoms>  (919) 
4.0

>  <∆∆G>  (919) 
-9.953361

>  <runtime>  (919) 
68.540024

>  <generation_date>  (919) 
nan

$$$$
mArh-x0849_0_A_α-mArh-6woj_B_0_B_α
     RDKit          3D

 25 27  0  0  0  0  0  0  0  0999 V2000
   -1.5530   15.7250   -3.2110 Br  0  0  0  0  0  0  0  0  0  0  0  0
   -2.5780   15.5270   -1.6220 C   0  0  0  0  0  0  0  0  0  0  0  0
   -1.8250   15.1260   -0.5780 C   0  0  0  0  0  0  0  0  0  0  0  0
   -3.8830   15.8280   -1.8500 C   0  0  0  0  0  0  0  0  0  0  0  0
   -2.8810   15.9680   -3.0880 C   0  0  0  0  0  0  0  0  0  0  0  0
   -2.3540   14.9270    0.6360 C   0  0  0  0  0  0  0  0  0  0  0  0
   -4.2890   15.5510   -0.4510 C   0  0  0  0  0  0  0  0  0  0  0  0
   -0.4930   14.9220   -0.7930 C   0  0  0  0  0  0  0  0  0  0  0  0
   -3.1550   16.0760   -4.6530 C   0  0  0  0  0  0  0  0  0  0  0  0
   -3.6290   15.1480    0.7050 N   0  0  0  0  0  0  0  0  0  0  0  0
   -1.6180   14.5310    1.6750 N   0  0  0  0  0  0  0  0  0  0  0  0
    0.2830   14.5250    0.2000 C   0  0  0  0  0  0  0  0  0  0  0  0
   -2.5090   17.2330   -5.5890 C   0  0  0  0  0  0  0  0  0  0  0  0
   -0.2960   14.3330    1.4390 C   0  0  0  0  0  0  0  0  0  0  0  0
   -2.0100   18.7060   -5.2150 C   0  0  0  0  0  0  0  0  0  0  0  0
   -2.6790   19.9760   -5.9470 C   0  0  0  0  0  0  0  0  0  0  0  0
   -3.7320   20.8890   -5.3590 O   0  0  0  0  0  0  0  0  0  0  0  0
   -4.5460   21.4560   -6.4720 C   0  0  2  0  0  0  0  0  0  0  0  0
   -3.8380   21.1010   -7.6380 O   0  0  0  0  0  0  0  0  0  0  0  0
   -4.7180   22.9940   -6.8210 C   0  0  1  0  0  0  0  0  0  0  0  0
   -5.0390   23.9290   -5.8110 O   0  0  0  0  0  0  0  0  0  0  0  0
   -2.7640   22.0130   -7.4470 C   0  0  2  0  0  0  0  0  0  0  0  0
   -3.4400   23.3860   -7.5400 C   0  0  1  0  0  0  0  0  0  0  0  0
   -1.5710   21.6500   -8.2700 C   0  0  0  0  0  0  0  0  0  0  0  0
   -3.8120   23.8250   -8.8550 O   0  0  0  0  0  0  0  0  0  0  0  0
  1  2  1  0
  2  3  2  0
  2  4  1  0
  4  5  1  0
  3  6  1  0
  4  7  2  0
  3  8  1  0
  5  9  1  0
  6 10  2  0
  7 10  1  0
  6 11  1  0
  8 12  2  0
  9 13  1  0
 11 14  2  0
 12 14  1  0
 13 15  1  0
 15 16  1  0
 16 17  1  0
 18 17  1  1
 18 19  1  0
 18 20  1  0
 20 21  1  1
 19 22  1  0
 20 23  1  0
 22 23  1  0
 22 24  1  6
 23 25  1  6
M  END
>  <%Rank>  (920) 
70.152672

>  <N_hits>  (920) 
2

>  <submitter_name>  (920) 
nan

>  <original SMILES>  (920) 
nan

>  <∆G_unbound>  (920) 
1.422622

>  <∆G_bound>  (920) 
-8.079301

>  <regarded>  (920) 
mArh-x0849_0_A_α,mArh-6woj_B_0_B_α

>  <ref_pdb>  (920) 
nan

>  <smiles>  (920) 
CC1OC(OCCCCCc2cnc3ncccc3c2Br)C(O)C1O

>  <submitter_email>  (920) 
nan

>  <disregarded>  (920) 


>  <LE>  (920) 
-0.380077

>  <submitter_institution>  (920) 
nan

>  <ref_mols>  (920) 
mArh-x0849_0_A,mArh-6woj_B_0_B

>  <N_constrained_atoms>  (920) 
20.0

>  <ref_url>  (920) 
nan

>  <method>  (920) 
nan

>  <comRMSD>  (920) 
1.036086

>  <N_unconstrained_atoms>  (920) 
5.0

>  <∆∆G>  (920) 
-9.501923

>  <runtime>  (920) 
53.052437

>  <generation_date>  (920) 
nan

$$$$
mArh-x0729_0_A_α-mArh-x0158_0_B_α
     RDKit          3D

 33 34  0  0  0  0  0  0  0  0999 V2000
   19.7230   25.4250    5.8810 C   0  0  0  0  0  0  0  0  0  0  0  0
   20.6850   26.5440    6.2060 C   0  0  2  0  0  0  0  0  0  0  0  0
   20.6960   26.9450    7.6560 N   0  0  0  0  0  0  0  0  0  0  0  0
   20.4480   27.8460    5.3950 C   0  0  2  0  0  0  0  0  0  0  0  0
   20.1000   27.6210    3.9730 C   0  0  0  0  0  0  0  0  0  0  0  0
   19.2810   27.1960    8.6150 S   0  0  0  0  0  0  0  0  0  0  0  0
   21.8330   27.8910    7.9580 C   0  0  0  0  0  0  0  0  0  0  0  0
   21.7260   28.6860    5.5060 C   0  0  0  0  0  0  0  0  0  0  0  0
   18.1140   27.1090    7.7710 O   0  0  0  0  0  0  0  0  0  0  0  0
   19.8180   27.4890    2.8550 N   0  0  0  0  0  0  0  0  0  0  0  0
   19.5060   28.3680    9.4390 O   0  0  0  0  0  0  0  0  0  0  0  0
   19.2760   25.7800    9.7130 C   0  0  0  0  0  0  0  0  0  0  0  0
   22.0010   29.0540    6.9650 C   0  0  0  0  0  0  0  0  0  0  0  0
   17.8530   25.2960   10.0230 C   0  0  0  0  0  0  0  0  0  0  0  0
   17.4520   24.0050    9.2970 C   0  0  0  0  0  0  0  0  0  0  0  0
   16.8580   22.9420   10.2350 C   0  0  0  0  0  0  0  0  0  0  0  0
   17.7330   21.7000   10.4920 C   0  0  0  0  0  0  0  0  0  0  0  0
   17.1850   20.7510   11.5710 C   0  0  0  0  0  0  0  0  0  0  0  0
   18.1030   19.5410   11.8230 C   0  0  0  0  0  0  0  0  0  0  0  0
   17.5180   18.1500   11.4800 C   0  0  0  0  0  0  0  0  0  0  0  0
   16.4980   17.5700   12.4790 C   0  0  0  0  0  0  0  0  0  0  0  0
   16.0450   16.2490   12.1540 O   0  0  0  0  0  0  0  0  0  0  0  0
   15.8240   15.3440   13.1670 C   0  0  0  0  0  0  0  0  0  0  0  0
   16.0200   15.5460   14.3540 O   0  0  0  0  0  0  0  0  0  0  0  0
   15.2880   14.0670   12.5060 C   0  0  0  0  0  0  0  0  0  0  0  0
   14.4520   13.1560   13.3130 N   0  0  0  0  0  0  0  0  0  0  0  0
   14.0960   11.9540   12.5000 C   0  0  0  0  0  0  0  0  0  0  0  0
   13.2210   13.8960   13.6300 C   0  0  0  0  0  0  0  0  0  0  0  0
   13.2320   10.9430   13.2510 C   0  0  0  0  0  0  0  0  0  0  0  0
   12.4130   13.1000   14.6110 C   0  0  0  0  0  0  0  0  0  0  0  0
   11.7260   11.6970   13.7870 S   0  0  0  0  0  0  0  0  0  0  0  0
   11.1120   10.8500   14.7940 O   0  0  0  0  0  0  0  0  0  0  0  0
   10.9900   12.1080   12.6020 O   0  0  0  0  0  0  0  0  0  0  0  0
  2  1  1  1
  2  3  1  0
  2  4  1  0
  4  5  1  6
  3  6  1  0
  3  7  1  0
  4  8  1  0
  6  9  2  0
  5 10  3  0
  6 11  2  0
  6 12  1  0
  7 13  1  0
  8 13  1  0
 12 14  1  0
 14 15  1  0
 15 16  1  0
 16 17  1  0
 17 18  1  0
 18 19  1  0
 19 20  1  0
 20 21  1  0
 21 22  1  0
 22 23  1  0
 23 24  2  0
 23 25  1  0
 25 26  1  0
 26 27  1  0
 26 28  1  0
 27 29  1  0
 28 30  1  0
 31 29  1  0
 30 31  1  0
 31 32  2  0
 31 33  2  0
M  END
>  <%Rank>  (921) 
70.229008

>  <N_hits>  (921) 
2

>  <submitter_name>  (921) 
nan

>  <original SMILES>  (921) 
nan

>  <∆G_unbound>  (921) 
0.970674

>  <∆G_bound>  (921) 
-5.461387

>  <regarded>  (921) 
mArh-x0729_0_A_α,mArh-x0158_0_B_α

>  <ref_pdb>  (921) 
nan

>  <smiles>  (921) 
CC1C(C#N)CCCN1S(=O)(=O)CCCCCCCCCOC(=O)CN1CCS(=O)(=O)CC1

>  <submitter_email>  (921) 
nan

>  <disregarded>  (921) 


>  <LE>  (921) 
-0.194911

>  <submitter_institution>  (921) 
nan

>  <ref_mols>  (921) 
mArh-x0729_0_A,mArh-x0158_0_B

>  <N_constrained_atoms>  (921) 
27.0

>  <ref_url>  (921) 
nan

>  <method>  (921) 
nan

>  <comRMSD>  (921) 
1.071201

>  <N_unconstrained_atoms>  (921) 
6.0

>  <∆∆G>  (921) 
-6.432061

>  <runtime>  (921) 
34.625097

>  <generation_date>  (921) 
nan

$$$$
mArh-5cms_P_15_P_β-mArh-5lw0_A_0_A_α
     RDKit          3D

 17 17  0  0  0  0  0  0  0  0999 V2000
   -1.6680   21.4460   -8.4010 O   0  0  0  0  0  0  0  0  0  0  0  0
   -0.8150   20.1830   -7.7920 P   0  0  2  0  0  0  0  0  0  0  0  0
   -1.6210   19.6900   -6.5100 O   0  0  0  0  0  0  0  0  0  0  0  0
   -3.1090   21.5120   -8.6170 C   0  0  1  0  0  0  0  0  0  0  0  0
    0.6270   20.4530   -7.4900 O   0  0  0  0  0  0  0  0  0  0  0  0
   -0.8930   18.9100   -8.7490 O   0  0  0  0  0  0  0  0  0  0  0  0
   -3.8930   20.8860   -7.5820 O   0  0  0  0  0  0  0  0  0  0  0  0
   -3.7740   22.8980   -8.7880 C   0  0  1  0  0  0  0  0  0  0  0  0
   -1.7940   18.1510   -6.1830 P   0  0  0  0  0  0  0  0  0  0  0  0
   -4.5940   22.9430   -9.9820 O   0  0  0  0  0  0  0  0  0  0  0  0
   -5.1270   21.6260   -7.5160 C   0  0  2  0  0  0  0  0  0  0  0  0
   -4.6760   23.0440   -7.5790 C   0  0  2  0  0  0  0  0  0  0  0  0
   -0.3530   17.5050   -6.3300 O   0  0  0  0  0  0  0  0  0  0  0  0
   -2.8720   17.4180   -6.8730 O   0  0  0  0  0  0  0  0  0  0  0  0
   -1.9210   18.1310   -4.6000 O   0  0  0  0  0  0  0  0  0  0  0  0
   -5.8860   21.3660   -6.3300 O   0  0  0  0  0  0  0  0  0  0  0  0
   -5.7810   23.8890   -7.9130 O   0  0  0  0  0  0  0  0  0  0  0  0
  1  2  1  0
  2  3  1  0
  4  1  1  1
  2  5  2  0
  2  6  1  6
  4  7  1  0
  4  8  1  0
  3  9  1  0
  8 10  1  6
  7 11  1  0
  8 12  1  0
 11 12  1  0
  9 13  1  0
  9 14  2  0
  9 15  1  0
 11 16  1  1
 12 17  1  6
M  END
>  <%Rank>  (922) 
70.305344

>  <N_hits>  (922) 
2

>  <submitter_name>  (922) 
nan

>  <original SMILES>  (922) 
nan

>  <∆G_unbound>  (922) 
1.974322

>  <∆G_bound>  (922) 
-7.177277

>  <regarded>  (922) 
mArh-5cms_P_15_P_β,mArh-5lw0_A_0_A_α

>  <ref_pdb>  (922) 
nan

>  <smiles>  (922) 
O=P(O)(O)OP(=O)(O)OC1OC(O)C(O)C1O

>  <submitter_email>  (922) 
nan

>  <disregarded>  (922) 


>  <LE>  (922) 
-0.538329

>  <submitter_institution>  (922) 
nan

>  <ref_mols>  (922) 
mArh-5cms_P_15_P,mArh-5lw0_A_0_A

>  <N_constrained_atoms>  (922) 
17.0

>  <ref_url>  (922) 
nan

>  <method>  (922) 
nan

>  <comRMSD>  (922) 
1.181974

>  <N_unconstrained_atoms>  (922) 
0.0

>  <∆∆G>  (922) 
-9.151599

>  <runtime>  (922) 
34.073122

>  <generation_date>  (922) 
nan

$$$$
mArh-4iqy_A_0_A_α-mArh-x0844_0_A_α
     RDKit          3D

 23 24  0  0  0  0  0  0  0  0999 V2000
   -2.2940   21.6070   -8.9150 C   0  0  0  0  0  0  0  0  0  0  0  0
   -2.7180   22.5350   -7.8200 C   0  0  2  0  0  0  0  0  0  0  0  0
   -3.1140   21.6410   -6.7960 O   0  0  0  0  0  0  0  0  0  0  0  0
   -3.8590   23.5360   -8.0300 C   0  0  1  0  0  0  0  0  0  0  0  0
   -4.3010   23.7640   -9.3800 O   0  0  0  0  0  0  0  0  0  0  0  0
   -4.3880   21.9670   -6.2890 C   0  0  1  0  0  0  0  0  0  0  0  0
   -5.0250   22.9890   -7.2240 C   0  0  1  0  0  0  0  0  0  0  0  0
   -5.0150   20.7230   -6.3650 O   0  0  0  0  0  0  0  0  0  0  0  0
   -5.6710   24.0400   -6.5310 O   0  0  0  0  0  0  0  0  0  0  0  0
   -3.9910   19.9090   -6.9370 C   0  0  0  0  0  0  0  0  0  0  0  0
   -2.6900   19.5680   -6.1460 C   0  0  0  0  0  0  0  0  0  0  0  0
   -2.3130   18.0500   -6.2630 C   0  0  0  0  0  0  0  0  0  0  0  0
   -1.6210   17.4290   -5.0220 C   0  0  0  0  0  0  0  0  0  0  0  0
   -1.9030   15.9250   -4.6410 C   0  0  0  0  0  0  0  0  0  0  0  0
   -3.2010   15.6000   -3.8440 C   0  0  0  0  0  0  0  0  0  0  0  0
   -2.9980   14.8990   -2.5880 O   0  0  0  0  0  0  0  0  0  0  0  0
   -3.8850   15.3180   -1.4960 C   0  0  2  0  0  0  0  0  0  0  0  0
   -3.2800   15.0060   -0.1590 C   0  0  0  0  0  0  0  0  0  0  0  0
   -5.2980   14.7390   -1.6140 C   0  0  0  0  0  0  0  0  0  0  0  0
   -4.0360   14.7980    0.9220 C   0  0  0  0  0  0  0  0  0  0  0  0
   -6.1040   14.8340   -0.3260 C   0  0  0  0  0  0  0  0  0  0  0  0
   -7.3390   14.8870   -0.3120 O   0  0  0  0  0  0  0  0  0  0  0  0
   -5.3960   14.8530    0.8490 N   0  0  0  0  0  0  0  0  0  0  0  0
  2  1  1  6
  2  3  1  0
  2  4  1  0
  4  5  1  6
  3  6  1  0
  4  7  1  0
  6  7  1  0
  6  8  1  6
  7  9  1  1
  8 10  1  0
 10 11  1  0
 11 12  1  0
 12 13  1  0
 13 14  1  0
 14 15  1  0
 15 16  1  0
 17 16  1  6
 17 18  1  0
 17 19  1  0
 18 20  2  0
 19 21  1  0
 21 22  2  0
 20 23  1  0
 21 23  1  0
M  END
>  <%Rank>  (923) 
70.381679

>  <N_hits>  (923) 
2

>  <submitter_name>  (923) 
nan

>  <original SMILES>  (923) 
nan

>  <∆G_unbound>  (923) 
0.28514

>  <∆G_bound>  (923) 
-9.283246

>  <regarded>  (923) 
mArh-4iqy_A_0_A_α,mArh-x0844_0_A_α

>  <ref_pdb>  (923) 
nan

>  <smiles>  (923) 
CC1OC(OCCCCCCOC2C=CNC(=O)C2)C(O)C1O

>  <submitter_email>  (923) 
nan

>  <disregarded>  (923) 


>  <LE>  (923) 
-0.416017

>  <submitter_institution>  (923) 
nan

>  <ref_mols>  (923) 
mArh-4iqy_A_0_A,mArh-x0844_0_A

>  <N_constrained_atoms>  (923) 
17.0

>  <ref_url>  (923) 
nan

>  <method>  (923) 
nan

>  <comRMSD>  (923) 
0.944921

>  <N_unconstrained_atoms>  (923) 
6.0

>  <∆∆G>  (923) 
-9.568385

>  <runtime>  (923) 
75.236684

>  <generation_date>  (923) 
nan

$$$$
mArh-5cms_L_11_L_α-5CB5_0_C_γ
     RDKit          3D

 23 24  0  0  0  0  0  0  0  0999 V2000
   -1.1810   20.9860   -8.3980 C   0  0  0  0  0  0  0  0  0  0  0  0
   -2.2590   21.8030   -9.0960 C   0  0  1  0  0  0  0  0  0  0  0  0
   -3.5600   21.3160   -8.8070 O   0  0  0  0  0  0  0  0  0  0  0  0
   -2.3380   23.2450   -8.6400 C   0  0  1  0  0  0  0  0  0  0  0  0
   -1.2460   24.0350   -9.0050 O   0  0  0  0  0  0  0  0  0  0  0  0
   -4.4550   22.3650   -9.1770 C   0  0  2  0  0  0  0  0  0  0  0  0
   -3.6400   23.6350   -9.3130 C   0  0  2  0  0  0  0  0  0  0  0  0
   -5.4500   22.6120   -8.1920 O   0  0  0  0  0  0  0  0  0  0  0  0
   -3.5970   24.1790  -10.6320 O   0  0  0  0  0  0  0  0  0  0  0  0
   -5.1840   22.1770   -6.8410 C   0  0  0  0  0  0  0  0  0  0  0  0
   -3.6980   22.0100   -6.4950 C   0  0  0  0  0  0  0  0  0  0  0  0
   -3.2550   20.5470   -6.5060 C   0  0  0  0  0  0  0  0  0  0  0  0
   -2.0800   20.1110   -5.6390 C   0  0  0  0  0  0  0  0  0  0  0  0
   -1.7560   18.5980   -5.7450 C   0  0  0  0  0  0  0  0  0  0  0  0
   -0.3130   18.2410   -6.1860 C   0  0  0  0  0  0  0  0  0  0  0  0
    0.4720   17.1530   -5.4080 C   0  0  0  0  0  0  0  0  0  0  0  0
   -0.3070   16.0120   -4.7310 C   0  0  2  0  0  0  0  0  0  0  0  0
   -0.1060   16.0050   -3.3170 O   0  0  0  0  0  0  0  0  0  0  0  0
   -0.0770   14.5460   -5.0940 C   0  0  1  0  0  0  0  0  0  0  0  0
    1.2600   14.0900   -4.9350 O   0  0  0  0  0  0  0  0  0  0  0  0
   -0.7020   14.7860   -2.8340 C   0  0  0  0  0  0  0  0  0  0  0  0
   -1.0100   13.9340   -4.0620 C   0  0  2  0  0  0  0  0  0  0  0  0
   -0.7760   12.5470   -3.8760 O   0  0  0  0  0  0  0  0  0  0  0  0
  2  1  1  1
  2  3  1  0
  2  4  1  0
  4  5  1  6
  3  6  1  0
  4  7  1  0
  6  7  1  0
  6  8  1  1
  7  9  1  6
  8 10  1  0
 10 11  1  0
 11 12  1  0
 12 13  1  0
 13 14  1  0
 14 15  1  0
 15 16  1  0
 17 16  1  6
 17 18  1  0
 17 19  1  0
 19 20  1  1
 18 21  1  0
 19 22  1  0
 21 22  1  0
 22 23  1  1
M  END
>  <%Rank>  (924) 
70.458015

>  <N_hits>  (924) 
2

>  <submitter_name>  (924) 
nan

>  <original SMILES>  (924) 
nan

>  <∆G_unbound>  (924) 
1.293032

>  <∆G_bound>  (924) 
-7.294105

>  <regarded>  (924) 
mArh-5cms_L_11_L_α,5CB5_0_C_γ

>  <ref_pdb>  (924) 
nan

>  <smiles>  (924) 
CC1OC(OCCCCCCCC2OCC(O)C2O)C(O)C1O

>  <submitter_email>  (924) 
nan

>  <disregarded>  (924) 


>  <LE>  (924) 
-0.373354

>  <submitter_institution>  (924) 
nan

>  <ref_mols>  (924) 
mArh-5cms_L_11_L,5CB5_0_C

>  <N_constrained_atoms>  (924) 
17.0

>  <ref_url>  (924) 
nan

>  <method>  (924) 
nan

>  <comRMSD>  (924) 
0.92644

>  <N_unconstrained_atoms>  (924) 
6.0

>  <∆∆G>  (924) 
-8.587137

>  <runtime>  (924) 
42.291109

>  <generation_date>  (924) 
nan

$$$$
5CB5_0_C_β-5CMS_0_M_γ
     RDKit          3D

 16 16  0  0  0  0  0  0  0  0999 V2000
   -1.5270   20.2700   -8.4050 O   0  0  0  0  0  0  0  0  0  0  0  0
   -0.1740   19.7730   -7.5870 P   0  0  0  0  0  0  0  0  0  0  0  0
   -0.1560   18.3770   -6.6830 O   0  0  0  0  0  0  0  0  0  0  0  0
    0.2420   18.9050   -8.7400 O   0  0  0  0  0  0  0  0  0  0  0  0
    1.0860   20.7320   -7.6300 O   0  0  0  0  0  0  0  0  0  0  0  0
   -1.5260   18.1090   -5.9140 P   0  0  0  0  0  0  0  0  0  0  0  0
   -1.2660   16.5950   -5.5170 O   0  0  0  0  0  0  0  0  0  0  0  0
   -2.8520   17.5060   -6.7570 O   0  0  0  0  0  0  0  0  0  0  0  0
   -1.7230   18.6670   -4.4240 O   0  0  0  0  0  0  0  0  0  0  0  0
   -0.1430   15.9310   -4.9510 C   0  0  1  0  0  0  0  0  0  0  0  0
   -0.1860   15.9250   -3.5590 O   0  0  0  0  0  0  0  0  0  0  0  0
    0.0200   14.4760   -5.2880 C   0  0  1  0  0  0  0  0  0  0  0  0
    1.3550   14.0180   -5.2290 O   0  0  0  0  0  0  0  0  0  0  0  0
   -1.1260   14.9300   -3.2490 C   0  0  0  0  0  0  0  0  0  0  0  0
   -0.6400   13.7580   -4.1080 C   0  0  1  0  0  0  0  0  0  0  0  0
   -1.6510   12.9780   -4.6070 O   0  0  0  0  0  0  0  0  0  0  0  0
  1  2  1  0
  2  3  1  0
  2  4  1  0
  2  5  1  0
  3  6  1  0
  6  7  1  0
  6  8  1  0
  6  9  1  0
 10  7  1  6
 10 11  1  0
 10 12  1  0
 12 13  1  1
 11 14  1  0
 12 15  1  0
 14 15  1  0
 15 16  1  6
M  CHG  2   4  -1   8  -1
M  END
>  <%Rank>  (925) 
70.534351

>  <N_hits>  (925) 
2

>  <submitter_name>  (925) 
nan

>  <original SMILES>  (925) 
nan

>  <∆G_unbound>  (925) 
1.160673

>  <∆G_bound>  (925) 
-6.929553

>  <regarded>  (925) 
5CB5_0_C_β,5CMS_0_M_γ

>  <ref_pdb>  (925) 
nan

>  <smiles>  (925) 
[O-][PH](O)(O)O[PH]([O-])(O)OC1OCC(O)C1O

>  <submitter_email>  (925) 
nan

>  <disregarded>  (925) 


>  <LE>  (925) 
-0.505639

>  <submitter_institution>  (925) 
nan

>  <ref_mols>  (925) 
5CB5_0_C,5CMS_0_M

>  <N_constrained_atoms>  (925) 
16.0

>  <ref_url>  (925) 
nan

>  <method>  (925) 
nan

>  <comRMSD>  (925) 
1.148719

>  <N_unconstrained_atoms>  (925) 
0.0

>  <∆∆G>  (925) 
-8.090226

>  <runtime>  (925) 
22.903774

>  <generation_date>  (925) 
nan

$$$$
mArh-5lw0_A_0_A_β-5CMS_0_R_β
     RDKit          3D

 10  9  0  0  0  0  0  0  0  0999 V2000
   -1.8330   20.4590   -8.4870 O   0  0  0  0  0  0  0  0  0  0  0  0
   -0.6450   19.5440   -7.7570 P   0  0  0  0  0  0  0  0  0  0  0  0
   -1.0960   19.1620   -6.1740 O   0  0  0  0  0  0  0  0  0  0  0  0
   -0.3370   18.3560   -8.6370 O   0  0  0  0  0  0  0  0  0  0  0  0
    0.7410   20.4520   -7.7150 O   0  0  0  0  0  0  0  0  0  0  0  0
   -1.6480   17.6080   -5.8740 P   0  0  0  0  0  0  0  0  0  0  0  0
    1.5740   19.8580   -6.9130 O   0  0  0  0  0  0  0  0  0  0  0  0
   -0.4170   16.4880   -5.6950 O   0  0  0  0  0  0  0  0  0  0  0  0
   -2.6300   17.2170   -6.9340 O   0  0  0  0  0  0  0  0  0  0  0  0
   -2.4990   17.5120   -4.4640 O   0  0  0  0  0  0  0  0  0  0  0  0
  1  2  1  0
  2  3  1  0
  2  4  2  0
  2  5  1  0
  3  6  1  0
  5  7  1  0
  6  8  1  0
  6  9  2  0
  6 10  1  0
M  CHG  1   7  -1
M  END
>  <%Rank>  (926) 
70.610687

>  <N_hits>  (926) 
2

>  <submitter_name>  (926) 
nan

>  <original SMILES>  (926) 
nan

>  <∆G_unbound>  (926) 
1.138116

>  <∆G_bound>  (926) 
-7.896881

>  <regarded>  (926) 
mArh-5lw0_A_0_A_β,5CMS_0_R_β

>  <ref_pdb>  (926) 
nan

>  <smiles>  (926) 
O=P(O)(O)OP(=O)(O)O[O-]

>  <submitter_email>  (926) 
nan

>  <disregarded>  (926) 


>  <LE>  (926) 
-0.9035

>  <submitter_institution>  (926) 
nan

>  <ref_mols>  (926) 
mArh-5lw0_A_0_A,5CMS_0_R

>  <N_constrained_atoms>  (926) 
10.0

>  <ref_url>  (926) 
nan

>  <method>  (926) 
nan

>  <comRMSD>  (926) 
1.183707

>  <N_unconstrained_atoms>  (926) 
0.0

>  <∆∆G>  (926) 
-9.034997

>  <runtime>  (926) 
25.306068

>  <generation_date>  (926) 
nan

$$$$
5CMS_0_D_α-mArh-5cms_N_13_N_β
     RDKit          3D

  9  8  0  0  0  0  0  0  0  0999 V2000
   -0.8020   16.5990   -5.4010 O   0  0  0  0  0  0  0  0  0  0  0  0
   -1.7740   17.8540   -5.8310 P   0  0  0  0  0  0  0  0  0  0  0  0
   -2.6850   17.7960   -7.1420 O   0  0  0  0  0  0  0  0  0  0  0  0
   -1.9920   19.0810   -4.7600 O   0  0  0  0  0  0  0  0  0  0  0  0
   -0.6450   18.5820   -6.5240 O   0  0  0  0  0  0  0  0  0  0  0  0
   -0.7670   19.5840   -7.8460 P   0  0  0  0  0  0  0  0  0  0  0  0
   -1.9230   20.3970   -7.2430 O   0  0  0  0  0  0  0  0  0  0  0  0
    0.1740   18.6820   -8.6380 O   0  0  0  0  0  0  0  0  0  0  0  0
    0.2830   20.8080   -7.9540 O   0  0  0  0  0  0  0  0  0  0  0  0
  1  2  1  0
  2  3  1  0
  2  4  1  0
  2  5  1  0
  5  6  1  0
  6  7  1  0
  6  8  1  0
  6  9  1  0
M  CHG  2   3  -1   8  -1
M  END
>  <%Rank>  (927) 
70.687023

>  <N_hits>  (927) 
2

>  <submitter_name>  (927) 
nan

>  <original SMILES>  (927) 
nan

>  <∆G_unbound>  (927) 
0.773775

>  <∆G_bound>  (927) 
-5.978973

>  <regarded>  (927) 
5CMS_0_D_α,mArh-5cms_N_13_N_β

>  <ref_pdb>  (927) 
nan

>  <smiles>  (927) 
[O-][PH](O)(O)O[PH]([O-])(O)O

>  <submitter_email>  (927) 
nan

>  <disregarded>  (927) 


>  <LE>  (927) 
-0.750305

>  <submitter_institution>  (927) 
nan

>  <ref_mols>  (927) 
5CMS_0_D,mArh-5cms_N_13_N

>  <N_constrained_atoms>  (927) 
9.0

>  <ref_url>  (927) 
nan

>  <method>  (927) 
nan

>  <comRMSD>  (927) 
1.072736

>  <N_unconstrained_atoms>  (927) 
0.0

>  <∆∆G>  (927) 
-6.752748

>  <runtime>  (927) 
20.837778

>  <generation_date>  (927) 
nan

$$$$
mArh-5cms_B_1_B_β-mArh-EU0906_0_A_α
     RDKit          3D

 21 21  0  0  0  0  0  0  0  0999 V2000
   -1.6840   20.0250   -7.9970 O   0  0  0  0  0  0  0  0  0  0  0  0
   -0.2170   19.4900   -7.6630 P   0  0  0  0  0  0  0  0  0  0  0  0
   -0.3150   18.5230   -6.3980 O   0  0  0  0  0  0  0  0  0  0  0  0
    0.7240   20.6350   -7.6300 O   0  0  0  0  0  0  0  0  0  0  0  0
   -0.0030   18.5170   -8.8840 O   0  0  0  0  0  0  0  0  0  0  0  0
   -1.5990   17.7170   -5.8960 P   0  0  0  0  0  0  0  0  0  0  0  0
   -1.1780   16.5110   -4.8720 O   0  0  0  0  0  0  0  0  0  0  0  0
   -2.6350   17.4150   -6.9060 O   0  0  0  0  0  0  0  0  0  0  0  0
   -2.1770   18.8310   -4.9070 O   0  0  0  0  0  0  0  0  0  0  0  0
   -0.4290   15.2870   -5.1370 C   0  0  0  0  0  0  0  0  0  0  0  0
   -1.3600   14.0290   -5.2630 C   0  0  0  0  0  0  0  0  0  0  0  0
   -0.7340   12.6110   -5.5720 C   0  0  0  0  0  0  0  0  0  0  0  0
   -0.5360   12.3190   -7.0750 C   0  0  0  0  0  0  0  0  0  0  0  0
   -0.3820   10.9550   -7.6930 C   0  0  0  0  0  0  0  0  0  0  0  0
    0.3500   10.4800   -8.8540 C   0  0  0  0  0  0  0  0  0  0  0  0
   -1.0150    9.9600   -7.1120 N   0  0  0  0  0  0  0  0  0  0  0  0
    1.1200   11.1190   -9.7460 N   0  0  0  0  0  0  0  0  0  0  0  0
    0.1150    9.1430   -8.9000 C   0  0  0  0  0  0  0  0  0  0  0  0
   -0.6980    8.8980   -7.8430 N   0  0  0  0  0  0  0  0  0  0  0  0
   -1.2330    7.6370   -7.4310 C   0  0  0  0  0  0  0  0  0  0  0  0
   -0.3070    7.0330   -6.4060 C   0  0  0  0  0  0  0  0  0  0  0  0
  1  2  1  0
  2  3  1  0
  2  4  2  0
  2  5  1  0
  3  6  1  0
  6  7  1  0
  6  8  2  0
  6  9  1  0
  7 10  1  0
 10 11  1  0
 11 12  1  0
 12 13  1  0
 13 14  1  0
 14 15  1  0
 14 16  2  0
 15 17  1  0
 15 18  2  0
 16 19  1  0
 18 19  1  0
 19 20  1  0
 20 21  1  0
M  END
>  <%Rank>  (928) 
70.763359

>  <N_hits>  (928) 
2

>  <submitter_name>  (928) 
nan

>  <original SMILES>  (928) 
nan

>  <∆G_unbound>  (928) 
0.2049

>  <∆G_bound>  (928) 
-10.919854

>  <regarded>  (928) 
mArh-5cms_B_1_B_β,mArh-EU0906_0_A_α

>  <ref_pdb>  (928) 
nan

>  <smiles>  (928) 
CCn1cc(N)c(CCCCOP(=O)(O)OP(=O)(O)O)n1

>  <submitter_email>  (928) 
nan

>  <disregarded>  (928) 


>  <LE>  (928) 
-0.52975

>  <submitter_institution>  (928) 
nan

>  <ref_mols>  (928) 
mArh-5cms_B_1_B,mArh-EU0906_0_A

>  <N_constrained_atoms>  (928) 
17.0

>  <ref_url>  (928) 
nan

>  <method>  (928) 
nan

>  <comRMSD>  (928) 
1.068762

>  <N_unconstrained_atoms>  (928) 
4.0

>  <∆∆G>  (928) 
-11.124754

>  <runtime>  (928) 
36.832027

>  <generation_date>  (928) 
nan

$$$$
4J4Z_0_A_α-mArh-EU0569_0_A_α
     RDKit          3D

 30 32  0  0  0  0  0  0  0  0999 V2000
   -0.0020   17.3700   -3.4520 O   0  0  0  0  0  0  0  0  0  0  0  0
   -0.8700   16.5560   -4.5060 S   0  0  0  0  0  0  0  0  0  0  0  0
   -0.0310   16.4050   -5.8490 O   0  0  0  0  0  0  0  0  0  0  0  0
   -2.2450   17.3380   -4.7920 O   0  0  0  0  0  0  0  0  0  0  0  0
   -1.1250   14.8750   -3.8300 C   0  0  2  0  0  0  0  0  0  0  0  0
   -0.5760   13.7980   -4.7700 C   0  0  0  0  0  0  0  0  0  0  0  0
   -2.5700   14.6320   -3.4290 C   0  0  0  0  0  0  0  0  0  0  0  0
   -3.1420   15.7470   -2.6260 C   0  0  0  0  0  0  0  0  0  0  0  0
   -1.2880   12.5070   -4.6420 N   0  0  0  0  0  0  0  0  0  0  0  0
   -2.5610   12.6380   -3.9170 C   0  0  0  0  0  0  0  0  0  0  0  0
   -0.5320   11.5040   -3.8910 C   0  0  0  0  0  0  0  0  0  0  0  0
   -3.9120   15.4730   -1.3750 C   0  0  0  0  0  0  0  0  0  0  0  0
   -3.4680   11.4140   -4.0180 C   0  0  0  0  0  0  0  0  0  0  0  0
   -1.3320   10.2250   -3.5640 C   0  0  0  0  0  0  0  0  0  0  0  0
   -3.2550   15.3460   -0.1430 C   0  0  0  0  0  0  0  0  0  0  0  0
   -5.2960   15.3620   -1.4320 C   0  0  0  0  0  0  0  0  0  0  0  0
   -2.7250   10.1630   -4.0870 N   0  0  0  0  0  0  0  0  0  0  0  0
   -6.0270   15.1560   -0.2810 C   0  0  0  0  0  0  0  0  0  0  0  0
   -3.9900   15.1390    1.0230 C   0  0  0  0  0  0  0  0  0  0  0  0
   -3.5790    9.0980   -3.5540 C   0  0  0  0  0  0  0  0  0  0  0  0
   -7.3860   15.0790   -0.4450 O   0  0  0  0  0  0  0  0  0  0  0  0
   -5.3820   15.0590    0.9490 C   0  0  0  0  0  0  0  0  0  0  0  0
   -3.5880    7.7080   -4.1840 C   0  0  0  0  0  0  0  0  0  0  0  0
   -8.1910   14.7470    0.6990 C   0  0  0  0  0  0  0  0  0  0  0  0
   -6.1800   14.9220    2.1470 C   0  0  0  0  0  0  0  0  0  0  0  0
   -3.5930    6.7090   -3.1800 O   0  0  0  0  0  0  0  0  0  0  0  0
   -7.5070   14.8080    2.0280 C   0  0  0  0  0  0  0  0  0  0  0  0
   -8.3920   14.7830    3.2110 C   0  0  0  0  0  0  0  0  0  0  0  0
   -7.7740   14.7330    4.4140 N   0  0  0  0  0  0  0  0  0  0  0  0
   -9.6130   14.8400    3.1140 O   0  0  0  0  0  0  0  0  0  0  0  0
  2  1  1  0
  2  3  1  0
  2  4  1  0
  2  5  1  0
  5  6  1  6
  5  7  1  0
  7  8  1  0
  6  9  1  0
  9 10  1  0
  9 11  1  0
  8 12  1  0
 10 13  1  0
 11 14  1  0
 12 15  2  0
 12 16  1  0
 13 17  1  0
 14 17  1  0
 16 18  2  0
 15 19  1  0
 17 20  1  0
 18 21  1  0
 18 22  1  0
 19 22  2  0
 20 23  1  0
 21 24  1  0
 22 25  1  0
 23 26  1  0
 24 27  1  0
 25 27  2  0
 27 28  1  0
 28 29  1  0
 28 30  2  0
M  END
>  <%Rank>  (929) 
70.839695

>  <N_hits>  (929) 
2

>  <submitter_name>  (929) 
nan

>  <original SMILES>  (929) 
nan

>  <∆G_unbound>  (929) 
0.92448

>  <∆G_bound>  (929) 
-3.851542

>  <regarded>  (929) 
4J4Z_0_A_α,mArh-EU0569_0_A_α

>  <ref_pdb>  (929) 
nan

>  <smiles>  (929) 
NC(=O)C1=Cc2ccc(CCC(CN3CCN(CCO)CC3)S(O)(O)O)cc2OC1

>  <submitter_email>  (929) 
nan

>  <disregarded>  (929) 


>  <LE>  (929) 
-0.159201

>  <submitter_institution>  (929) 
nan

>  <ref_mols>  (929) 
4J4Z_0_A,mArh-EU0569_0_A

>  <N_constrained_atoms>  (929) 
28.0

>  <ref_url>  (929) 
nan

>  <method>  (929) 
nan

>  <comRMSD>  (929) 
1.151537

>  <N_unconstrained_atoms>  (929) 
2.0

>  <∆∆G>  (929) 
-4.776022

>  <runtime>  (929) 
44.927862

>  <generation_date>  (929) 
nan

$$$$
5CB5_0_E_β-5L9K_0_A_β
     RDKit          3D

  9  8  0  0  0  0  0  0  0  0999 V2000
   -1.6390   20.7570   -8.3250 O   0  0  0  0  0  0  0  0  0  0  0  0
   -0.2200   20.0340   -8.1020 P   0  0  0  0  0  0  0  0  0  0  0  0
   -0.4040   19.3420   -6.7880 O   0  0  0  0  0  0  0  0  0  0  0  0
    1.0850   20.8800   -7.5350 O   0  0  0  0  0  0  0  0  0  0  0  0
    0.0190   18.5340   -8.8020 O   0  0  0  0  0  0  0  0  0  0  0  0
   -1.7560   18.6900   -6.1620 P   0  0  0  0  0  0  0  0  0  0  0  0
   -0.9680   17.5860   -5.4780 O   0  0  0  0  0  0  0  0  0  0  0  0
   -2.6550   17.5620   -6.9130 O   0  0  0  0  0  0  0  0  0  0  0  0
   -2.3270   19.3900   -4.7810 O   0  0  0  0  0  0  0  0  0  0  0  0
  1  2  1  0
  2  3  1  0
  2  4  1  0
  2  5  1  0
  3  6  1  0
  6  7  1  0
  6  8  1  0
  6  9  1  0
M  CHG  2   4  -1   8  -1
M  END
>  <%Rank>  (930) 
70.916031

>  <N_hits>  (930) 
2

>  <submitter_name>  (930) 
nan

>  <original SMILES>  (930) 
nan

>  <∆G_unbound>  (930) 
0.654534

>  <∆G_bound>  (930) 
-5.68037

>  <regarded>  (930) 
5CB5_0_E_β,5L9K_0_A_β

>  <ref_pdb>  (930) 
nan

>  <smiles>  (930) 
[O-][PH](O)(O)O[PH]([O-])(O)O

>  <submitter_email>  (930) 
nan

>  <disregarded>  (930) 


>  <LE>  (930) 
-0.703878

>  <submitter_institution>  (930) 
nan

>  <ref_mols>  (930) 
5CB5_0_E,5L9K_0_A

>  <N_constrained_atoms>  (930) 
9.0

>  <ref_url>  (930) 
nan

>  <method>  (930) 
nan

>  <comRMSD>  (930) 
1.050881

>  <N_unconstrained_atoms>  (930) 
0.0

>  <∆∆G>  (930) 
-6.334904

>  <runtime>  (930) 
29.334101

>  <generation_date>  (930) 
nan

$$$$
5CB5_0_E_β-mArh-x0685_1_A_α
     RDKit          3D

 25 25  0  0  0  0  0  0  0  0999 V2000
   -1.7060   20.7210   -8.3010 O   0  0  0  0  0  0  0  0  0  0  0  0
   -0.2790   19.8770   -8.0300 P   0  0  0  0  0  0  0  0  0  0  0  0
   -0.7500   19.4500   -6.6520 O   0  0  0  0  0  0  0  0  0  0  0  0
    1.0470   20.6940   -7.4340 O   0  0  0  0  0  0  0  0  0  0  0  0
   -0.1680   18.4150   -8.6650 O   0  0  0  0  0  0  0  0  0  0  0  0
   -1.5790   18.2520   -6.0900 P   0  0  0  0  0  0  0  0  0  0  0  0
   -0.2160   17.3560   -5.8650 O   0  0  0  0  0  0  0  0  0  0  0  0
   -2.5540   18.2720   -7.3240 O   0  0  0  0  0  0  0  0  0  0  0  0
   -1.9560   19.1560   -4.7180 O   0  0  0  0  0  0  0  0  0  0  0  0
   -0.2360   16.7680   -4.5900 C   0  0  0  0  0  0  0  0  0  0  0  0
   -0.1750   15.2420   -4.7510 C   0  0  0  0  0  0  0  0  0  0  0  0
   -0.4800   14.3320   -3.6770 C   0  0  0  0  0  0  0  0  0  0  0  0
    0.0190   12.7440   -4.0720 C   0  0  2  0  0  0  0  0  0  0  0  0
   -1.1990   12.1670   -4.6260 C   0  0  0  0  0  0  0  0  0  0  0  0
    0.4620   12.1680   -2.5210 S   0  0  0  0  0  0  0  0  0  0  0  0
   -1.4310   10.9580   -5.2070 N   0  0  0  0  0  0  0  0  0  0  0  0
    2.3730   12.4160   -2.8170 O   0  0  0  0  0  0  0  0  0  0  0  0
    0.5110   10.5130   -2.5070 O   0  0  0  0  0  0  0  0  0  0  0  0
    0.3050   12.9230   -1.3300 O   0  0  0  0  0  0  0  0  0  0  0  0
   -0.8430   10.3400   -6.2810 C   0  0  0  0  0  0  0  0  0  0  0  0
   -0.7400    8.8920   -6.4340 C   0  0  0  0  0  0  0  0  0  0  0  0
   -1.7320   10.8340   -7.5010 C   0  0  0  0  0  0  0  0  0  0  0  0
    0.0060    8.5740   -7.7300 C   0  0  0  0  0  0  0  0  0  0  0  0
   -0.9530   10.6320   -8.7560 C   0  0  0  0  0  0  0  0  0  0  0  0
   -0.6340    9.1690   -8.9520 C   0  0  0  0  0  0  0  0  0  0  0  0
  1  2  1  0
  2  3  1  0
  2  4  1  0
  2  5  1  0
  3  6  1  0
  6  7  1  0
  6  8  1  0
  6  9  1  0
  7 10  1  0
 10 11  1  0
 11 12  1  0
 13 12  1  1
 13 14  1  0
 13 15  1  0
 14 16  1  0
 15 17  1  0
 15 18  1  0
 15 19  1  0
 16 20  1  0
 20 21  1  0
 20 22  1  0
 21 23  1  0
 22 24  1  0
 23 25  1  0
 24 25  1  0
M  CHG  2   4  -1   8  -1
M  END
>  <%Rank>  (931) 
70.992366

>  <N_hits>  (931) 
2

>  <submitter_name>  (931) 
nan

>  <original SMILES>  (931) 
nan

>  <∆G_unbound>  (931) 
1.994416

>  <∆G_bound>  (931) 
-10.054323

>  <regarded>  (931) 
5CB5_0_E_β,mArh-x0685_1_A_α

>  <ref_pdb>  (931) 
nan

>  <smiles>  (931) 
[O-][PH](O)(O)O[PH]([O-])(O)OCCCC(CNC1CCCCC1)S(O)(O)O

>  <submitter_email>  (931) 
nan

>  <disregarded>  (931) 


>  <LE>  (931) 
-0.48195

>  <submitter_institution>  (931) 
nan

>  <ref_mols>  (931) 
5CB5_0_E,mArh-x0685_1_A

>  <N_constrained_atoms>  (931) 
22.0

>  <ref_url>  (931) 
nan

>  <method>  (931) 
nan

>  <comRMSD>  (931) 
1.193773

>  <N_unconstrained_atoms>  (931) 
3.0

>  <∆∆G>  (931) 
-12.048738

>  <runtime>  (931) 
32.656832

>  <generation_date>  (931) 
nan

$$$$
5CB5_0_E_δ-mArh-x0926_0_A_α
     RDKit          3D

 11 12  0  0  0  0  0  0  0  0999 V2000
   -3.9830   15.6260    1.9890 N   0  0  0  0  0  0  0  0  0  0  0  0
   -3.1380   14.7800    1.1730 C   0  0  1  0  0  0  0  0  0  0  0  0
   -3.2920   15.1450   -0.2620 C   0  0  1  0  0  0  0  0  0  0  0  0
   -1.8000   15.1020    1.6440 N   0  0  0  0  0  0  0  0  0  0  0  0
   -2.1670   14.4870   -1.0080 C   0  0  1  0  0  0  0  0  0  0  0  0
   -4.4220   14.7010   -1.1150 C   0  0  0  0  0  0  0  0  0  0  0  0
   -0.6470   14.6450    0.8680 C   0  0  0  0  0  0  0  0  0  0  0  0
   -5.5780   14.4230   -0.7550 O   0  0  0  0  0  0  0  0  0  0  0  0
   -2.4240   14.8180   -2.3920 N   0  0  0  0  0  0  0  0  0  0  0  0
   -3.8940   14.6860   -2.5440 C   0  0  0  0  0  0  0  0  0  0  0  0
   -0.8450   14.8400   -0.5590 N   0  0  0  0  0  0  0  0  0  0  0  0
  2  1  1  1
  2  3  1  0
  2  4  1  0
  3  5  1  0
  3  6  1  6
  4  7  1  0
  6  8  2  0
  5  9  1  6
  6 10  1  0
  9 10  1  0
  5 11  1  0
  7 11  1  0
M  END
>  <%Rank>  (932) 
71.068702

>  <N_hits>  (932) 
2

>  <submitter_name>  (932) 
nan

>  <original SMILES>  (932) 
nan

>  <∆G_unbound>  (932) 
0.407116

>  <∆G_bound>  (932) 
-1.854382

>  <regarded>  (932) 
5CB5_0_E_δ,mArh-x0926_0_A_α

>  <ref_pdb>  (932) 
nan

>  <smiles>  (932) 
NC1NCNC2NCC(=O)C12

>  <submitter_email>  (932) 
nan

>  <disregarded>  (932) 


>  <LE>  (932) 
-0.205591

>  <submitter_institution>  (932) 
nan

>  <ref_mols>  (932) 
5CB5_0_E,mArh-x0926_0_A

>  <N_constrained_atoms>  (932) 
11.0

>  <ref_url>  (932) 
nan

>  <method>  (932) 
nan

>  <comRMSD>  (932) 
0.873509

>  <N_unconstrained_atoms>  (932) 
0.0

>  <∆∆G>  (932) 
-2.261498

>  <runtime>  (932) 
27.251812

>  <generation_date>  (932) 
nan

$$$$
2BFQ_1_A_γ-3EW5_1_B_α
     RDKit          3D

 19 19  0  0  0  0  0  0  0  0999 V2000
   -0.9080   12.8430   -3.9140 O   0  0  0  0  0  0  0  0  0  0  0  0
   -1.0760   14.2120   -3.9640 C   0  0  1  0  0  0  0  0  0  0  0  0
   -0.4920   14.8180   -2.6620 C   0  0  0  0  0  0  0  0  0  0  0  0
   -0.0870   14.8210   -4.9480 C   0  0  2  0  0  0  0  0  0  0  0  0
    1.1730   14.2840   -4.8160 O   0  0  0  0  0  0  0  0  0  0  0  0
    0.0860   16.0080   -3.0870 O   0  0  0  0  0  0  0  0  0  0  0  0
   -0.2670   16.2010   -4.3820 C   0  0  1  0  0  0  0  0  0  0  0  0
    0.5360   17.2760   -5.1430 C   0  0  0  0  0  0  0  0  0  0  0  0
   -0.3950   18.3770   -5.5240 C   0  0  0  0  0  0  0  0  0  0  0  0
    0.0300   19.2830   -6.5010 O   0  0  0  0  0  0  0  0  0  0  0  0
   -0.8380   19.5240   -7.7310 P   0  0  0  0  0  0  0  0  0  0  0  0
   -1.3940   21.0200   -7.4390 O   0  0  0  0  0  0  0  0  0  0  0  0
    0.2950   19.0740   -8.7700 O   0  0  0  0  0  0  0  0  0  0  0  0
   -1.7210   18.2770   -7.0870 O   0  0  0  0  0  0  0  0  0  0  0  0
   -2.5980   21.0390   -6.7720 C   0  0  0  0  0  0  0  0  0  0  0  0
   -3.6570   22.0040   -7.2380 C   0  0  2  0  0  0  0  0  0  0  0  0
   -5.0290   21.3680   -7.0760 C   0  0  0  0  0  0  0  0  0  0  0  0
   -3.5360   22.2000   -8.6270 O   0  0  0  0  0  0  0  0  0  0  0  0
   -5.6100   21.6830   -5.8650 O   0  0  0  0  0  0  0  0  0  0  0  0
  2  1  1  1
  2  3  1  0
  2  4  1  0
  4  5  1  1
  3  6  1  0
  4  7  1  0
  6  7  1  0
  7  8  1  6
  8  9  1  0
  9 10  1  0
 10 11  1  0
 11 12  1  0
 11 13  1  0
 11 14  1  0
 12 15  1  0
 15 16  1  0
 16 17  1  0
 16 18  1  6
 17 19  1  0
M  END
>  <%Rank>  (933) 
71.145038

>  <N_hits>  (933) 
2

>  <submitter_name>  (933) 
nan

>  <original SMILES>  (933) 
nan

>  <∆G_unbound>  (933) 
0.837709

>  <∆G_bound>  (933) 
-8.873174

>  <regarded>  (933) 
2BFQ_1_A_γ,3EW5_1_B_α

>  <ref_pdb>  (933) 
nan

>  <smiles>  (933) 
OC[C@H](O)CO[PH](O)(O)OCCC1OCC(O)C1O

>  <submitter_email>  (933) 
nan

>  <disregarded>  (933) 


>  <LE>  (933) 
-0.511099

>  <submitter_institution>  (933) 
nan

>  <ref_mols>  (933) 
2BFQ_1_A,3EW5_1_B

>  <N_constrained_atoms>  (933) 
18.0

>  <ref_url>  (933) 
nan

>  <method>  (933) 
nan

>  <comRMSD>  (933) 
1.180676

>  <N_unconstrained_atoms>  (933) 
1.0

>  <∆∆G>  (933) 
-9.710883

>  <runtime>  (933) 
47.731018

>  <generation_date>  (933) 
nan

$$$$
mArh-5cb5_Q_0_Q_γ-3EW5_1_B_α
     RDKit          3D

 19 19  0  0  0  0  0  0  0  0999 V2000
   -0.7390   12.9510   -4.1960 O   0  0  0  0  0  0  0  0  0  0  0  0
   -0.7430   14.3180   -4.4410 C   0  0  1  0  0  0  0  0  0  0  0  0
   -0.5110   15.0150   -3.1030 C   0  0  0  0  0  0  0  0  0  0  0  0
    0.5610   14.7450   -5.1240 C   0  0  2  0  0  0  0  0  0  0  0  0
    1.6040   13.9130   -4.8100 O   0  0  0  0  0  0  0  0  0  0  0  0
   -0.1270   16.2640   -3.5220 O   0  0  0  0  0  0  0  0  0  0  0  0
    0.7190   16.1590   -4.5780 C   0  0  2  0  0  0  0  0  0  0  0  0
    0.3270   17.1010   -5.7310 C   0  0  0  0  0  0  0  0  0  0  0  0
    0.1690   18.5260   -5.4080 C   0  0  0  0  0  0  0  0  0  0  0  0
    0.2240   19.3970   -6.5160 O   0  0  0  0  0  0  0  0  0  0  0  0
   -0.8040   19.4830   -7.6500 P   0  0  0  0  0  0  0  0  0  0  0  0
   -1.4090   20.9720   -7.4130 O   0  0  0  0  0  0  0  0  0  0  0  0
    0.2580   19.0450   -8.7760 O   0  0  0  0  0  0  0  0  0  0  0  0
   -1.5600   18.2250   -6.8830 O   0  0  0  0  0  0  0  0  0  0  0  0
   -2.6260   20.9820   -6.7750 C   0  0  0  0  0  0  0  0  0  0  0  0
   -3.6620   21.9760   -7.2350 C   0  0  2  0  0  0  0  0  0  0  0  0
   -5.0500   21.3760   -7.0710 C   0  0  0  0  0  0  0  0  0  0  0  0
   -3.5380   22.1680   -8.6230 O   0  0  0  0  0  0  0  0  0  0  0  0
   -5.6090   21.6790   -5.8450 O   0  0  0  0  0  0  0  0  0  0  0  0
  2  1  1  1
  2  3  1  0
  2  4  1  0
  4  5  1  1
  3  6  1  0
  4  7  1  0
  6  7  1  0
  7  8  1  6
  8  9  1  0
  9 10  1  0
 10 11  1  0
 11 12  1  0
 11 13  1  0
 11 14  1  0
 12 15  1  0
 15 16  1  0
 16 17  1  0
 16 18  1  6
 17 19  1  0
M  END
>  <%Rank>  (934) 
71.221374

>  <N_hits>  (934) 
2

>  <submitter_name>  (934) 
nan

>  <original SMILES>  (934) 
nan

>  <∆G_unbound>  (934) 
0.837709

>  <∆G_bound>  (934) 
-8.845272

>  <regarded>  (934) 
mArh-5cb5_Q_0_Q_γ,3EW5_1_B_α

>  <ref_pdb>  (934) 
nan

>  <smiles>  (934) 
OC[C@H](O)CO[PH](O)(O)OCCC1OCC(O)C1O

>  <submitter_email>  (934) 
nan

>  <disregarded>  (934) 


>  <LE>  (934) 
-0.509631

>  <submitter_institution>  (934) 
nan

>  <ref_mols>  (934) 
mArh-5cb5_Q_0_Q,3EW5_1_B

>  <N_constrained_atoms>  (934) 
18.0

>  <ref_url>  (934) 
nan

>  <method>  (934) 
nan

>  <comRMSD>  (934) 
1.180499

>  <N_unconstrained_atoms>  (934) 
1.0

>  <∆∆G>  (934) 
-9.682982

>  <runtime>  (934) 
31.026104

>  <generation_date>  (934) 
nan

$$$$
5LW0_1_B_δ-mArh-5cb5_P_0_P_α
     RDKit          3D

 24 26  0  0  0  0  0  0  0  0999 V2000
   -4.1580   15.4060    1.5540 N   0  0  0  0  0  0  0  0  0  0  0  0
   -3.0730   14.5450    1.1190 C   0  0  1  0  0  0  0  0  0  0  0  0
   -2.9210   14.2880   -0.4010 C   0  0  2  0  0  0  0  0  0  0  0  0
   -1.8670   15.1550    1.6430 N   0  0  0  0  0  0  0  0  0  0  0  0
   -1.5110   14.7120   -0.7380 C   0  0  2  0  0  0  0  0  0  0  0  0
   -3.6360   15.0050   -1.4740 N   0  0  0  0  0  0  0  0  0  0  0  0
   -0.6720   14.3410    1.4350 C   0  0  0  0  0  0  0  0  0  0  0  0
   -1.4450   14.3720   -2.1380 N   0  0  0  0  0  0  0  0  0  0  0  0
   -2.7340   14.8170   -2.6650 C   0  0  2  0  0  0  0  0  0  0  0  0
   -0.5340   14.0010    0.0340 N   0  0  0  0  0  0  0  0  0  0  0  0
   -2.6870   16.1560   -3.4350 C   0  0  0  0  0  0  0  0  0  0  0  0
   -1.6370   16.5790   -4.5150 C   0  0  0  0  0  0  0  0  0  0  0  0
   -2.1700   17.4240   -5.7330 C   0  0  0  0  0  0  0  0  0  0  0  0
   -2.0770   18.9890   -5.6540 C   0  0  0  0  0  0  0  0  0  0  0  0
   -3.0120   19.7500   -6.6480 C   0  0  0  0  0  0  0  0  0  0  0  0
   -3.7400   20.8730   -6.0630 O   0  0  0  0  0  0  0  0  0  0  0  0
   -4.6170   21.5970   -6.9780 C   0  0  2  0  0  0  0  0  0  0  0  0
   -4.4530   21.1450   -8.3250 O   0  0  0  0  0  0  0  0  0  0  0  0
   -4.2860   23.1180   -6.9750 C   0  0  2  0  0  0  0  0  0  0  0  0
   -5.4580   23.9590   -6.8090 O   0  0  0  0  0  0  0  0  0  0  0  0
   -3.4640   21.9870   -8.9210 C   0  0  1  0  0  0  0  0  0  0  0  0
   -3.7300   23.3820   -8.3840 C   0  0  1  0  0  0  0  0  0  0  0  0
   -2.0740   21.4970   -8.5590 C   0  0  0  0  0  0  0  0  0  0  0  0
   -4.6440   24.1000   -9.2130 O   0  0  0  0  0  0  0  0  0  0  0  0
  2  1  1  6
  2  3  1  0
  2  4  1  0
  3  5  1  0
  3  6  1  6
  4  7  1  0
  5  8  1  6
  6  9  1  0
  8  9  1  0
  5 10  1  0
  7 10  1  0
  9 11  1  1
 11 12  1  0
 12 13  1  0
 13 14  1  0
 14 15  1  0
 15 16  1  0
 17 16  1  1
 17 18  1  0
 17 19  1  0
 19 20  1  6
 18 21  1  0
 19 22  1  0
 21 22  1  0
 21 23  1  1
 22 24  1  6
M  END
>  <%Rank>  (935) 
71.29771

>  <N_hits>  (935) 
2

>  <submitter_name>  (935) 
nan

>  <original SMILES>  (935) 
nan

>  <∆G_unbound>  (935) 
0.335171

>  <∆G_bound>  (935) 
-8.389199

>  <regarded>  (935) 
5LW0_1_B_δ,mArh-5cb5_P_0_P_α

>  <ref_pdb>  (935) 
nan

>  <smiles>  (935) 
CC1OC(OCCCCCC2NC3NCNC(N)C3N2)C(O)C1O

>  <submitter_email>  (935) 
nan

>  <disregarded>  (935) 


>  <LE>  (935) 
-0.363515

>  <submitter_institution>  (935) 
nan

>  <ref_mols>  (935) 
5LW0_1_B,mArh-5cb5_P_0_P

>  <N_constrained_atoms>  (935) 
19.0

>  <ref_url>  (935) 
nan

>  <method>  (935) 
nan

>  <comRMSD>  (935) 
1.024938

>  <N_unconstrained_atoms>  (935) 
5.0

>  <∆∆G>  (935) 
-8.72437

>  <runtime>  (935) 
46.899901

>  <generation_date>  (935) 
nan

$$$$
MAC-120_0_A_α-5MQX_0_A_α
     RDKit          3D

 20 21  0  0  0  0  0  0  0  0999 V2000
   -7.3380   14.9680   -1.2340 C   0  0  0  0  0  0  0  0  0  0  0  0
   -5.8500   14.8060   -1.2040 C   0  0  0  0  0  0  0  0  0  0  0  0
   -5.1190   14.5900   -2.3900 C   0  0  0  0  0  0  0  0  0  0  0  0
   -5.1900   14.8720    0.0380 C   0  0  0  0  0  0  0  0  0  0  0  0
   -5.8590   14.5020   -3.7500 C   0  0  0  0  0  0  0  0  0  0  0  0
   -3.8170   14.7250    0.1030 C   0  0  0  0  0  0  0  0  0  0  0  0
   -3.7260   14.4580   -2.2160 C   0  0  0  0  0  0  0  0  0  0  0  0
   -3.1490   14.7850    1.3430 N   0  0  0  0  0  0  0  0  0  0  0  0
   -5.0750   14.7090   -5.0810 C   0  0  0  0  0  0  0  0  0  0  0  0
   -3.0760   14.5220   -1.0060 N   0  0  0  0  0  0  0  0  0  0  0  0
   -5.9930   14.8270   -6.3530 C   0  0  0  0  0  0  0  0  0  0  0  0
   -6.7840   16.0480   -6.5150 O   0  0  0  0  0  0  0  0  0  0  0  0
   -6.6240   16.7510   -7.7870 C   0  0  2  0  0  0  0  0  0  0  0  0
   -5.7790   17.8730   -7.4920 O   0  0  0  0  0  0  0  0  0  0  0  0
   -7.9390   17.3430   -8.4280 C   0  0  2  0  0  0  0  0  0  0  0  0
   -8.3630   16.6460   -9.5920 O   0  0  0  0  0  0  0  0  0  0  0  0
   -6.4910   19.0460   -7.8920 C   0  0  2  0  0  0  0  0  0  0  0  0
   -7.5700   18.7820   -8.8690 C   0  0  2  0  0  0  0  0  0  0  0  0
   -5.8540   20.3960   -7.6370 C   0  0  0  0  0  0  0  0  0  0  0  0
   -8.6100   19.7280   -8.7520 O   0  0  0  0  0  0  0  0  0  0  0  0
  1  2  1  0
  2  3  2  0
  2  4  1  0
  3  5  1  0
  4  6  2  0
  3  7  1  0
  6  8  1  0
  5  9  1  0
  6 10  1  0
  7 10  2  0
  9 11  1  0
 11 12  1  0
 13 12  1  1
 13 14  1  0
 13 15  1  0
 15 16  1  6
 14 17  1  0
 15 18  1  0
 17 18  1  0
 17 19  1  6
 18 20  1  1
M  END
>  <%Rank>  (936) 
71.374046

>  <N_hits>  (936) 
2

>  <submitter_name>  (936) 
nan

>  <original SMILES>  (936) 
nan

>  <∆G_unbound>  (936) 
0.03957

>  <∆G_bound>  (936) 
-2.820488

>  <regarded>  (936) 
MAC-120_0_A_α,5MQX_0_A_α

>  <ref_pdb>  (936) 
nan

>  <smiles>  (936) 
Cc1cc(N)ncc1CCCOC1OC(C)C(O)C1O

>  <submitter_email>  (936) 
nan

>  <disregarded>  (936) 


>  <LE>  (936) 
-0.143003

>  <submitter_institution>  (936) 
nan

>  <ref_mols>  (936) 
MAC-120_0_A,5MQX_0_A

>  <N_constrained_atoms>  (936) 
17.0

>  <ref_url>  (936) 
nan

>  <method>  (936) 
nan

>  <comRMSD>  (936) 
0.920657

>  <N_unconstrained_atoms>  (936) 
3.0

>  <∆∆G>  (936) 
-2.860058

>  <runtime>  (936) 
36.434442

>  <generation_date>  (936) 
nan

$$$$
mArh-5cb5_G_0_G_α-4IQY_0_A_γ
     RDKit          3D

 22 23  0  0  0  0  0  0  0  0999 V2000
   -2.3470   21.4970   -8.7860 C   0  0  0  0  0  0  0  0  0  0  0  0
   -2.8690   22.8590   -8.3930 C   0  0  2  0  0  0  0  0  0  0  0  0
   -3.2110   22.7920   -7.0170 O   0  0  0  0  0  0  0  0  0  0  0  0
   -4.1600   23.3050   -9.0440 C   0  0  1  0  0  0  0  0  0  0  0  0
   -4.2520   22.9220  -10.4150 O   0  0  0  0  0  0  0  0  0  0  0  0
   -4.5110   22.2740   -6.8930 C   0  0  1  0  0  0  0  0  0  0  0  0
   -5.2100   22.5690   -8.2380 C   0  0  1  0  0  0  0  0  0  0  0  0
   -4.3740   20.8930   -6.5810 O   0  0  0  0  0  0  0  0  0  0  0  0
   -6.3510   23.4210   -8.1120 O   0  0  0  0  0  0  0  0  0  0  0  0
   -3.0100   20.5210   -6.2120 C   0  0  0  0  0  0  0  0  0  0  0  0
   -2.5930   19.0480   -6.4710 C   0  0  0  0  0  0  0  0  0  0  0  0
   -1.2790   18.8250   -7.2410 C   0  0  0  0  0  0  0  0  0  0  0  0
   -0.1030   19.1610   -6.3820 C   0  0  0  0  0  0  0  0  0  0  0  0
    0.7050   17.9730   -5.8400 C   0  0  0  0  0  0  0  0  0  0  0  0
   -0.1650   16.9420   -5.1200 C   0  0  0  0  0  0  0  0  0  0  0  0
    0.6200   15.8570   -4.3650 C   0  0  1  0  0  0  0  0  0  0  0  0
    0.1420   15.8610   -2.9950 O   0  0  0  0  0  0  0  0  0  0  0  0
    0.4300   14.4130   -4.8490 C   0  0  1  0  0  0  0  0  0  0  0  0
    1.5080   13.5270   -4.6070 O   0  0  0  0  0  0  0  0  0  0  0  0
   -0.6020   14.6590   -2.7490 C   0  0  0  0  0  0  0  0  0  0  0  0
   -0.8000   13.9680   -4.0850 C   0  0  2  0  0  0  0  0  0  0  0  0
   -0.8270   12.5530   -3.9950 O   0  0  0  0  0  0  0  0  0  0  0  0
  2  1  1  6
  2  3  1  0
  2  4  1  0
  4  5  1  6
  3  6  1  0
  4  7  1  0
  6  7  1  0
  6  8  1  6
  7  9  1  1
  8 10  1  0
 10 11  1  0
 11 12  1  0
 12 13  1  0
 13 14  1  0
 14 15  1  0
 16 15  1  6
 16 17  1  0
 16 18  1  0
 18 19  1  1
 17 20  1  0
 18 21  1  0
 20 21  1  0
 21 22  1  1
M  END
>  <%Rank>  (937) 
71.450382

>  <N_hits>  (937) 
2

>  <submitter_name>  (937) 
nan

>  <original SMILES>  (937) 
nan

>  <∆G_unbound>  (937) 
0.187336

>  <∆G_bound>  (937) 
-9.521512

>  <regarded>  (937) 
mArh-5cb5_G_0_G_α,4IQY_0_A_γ

>  <ref_pdb>  (937) 
nan

>  <smiles>  (937) 
CC1OC(OCCCCCCC2OCC(O)C2O)C(O)C1O

>  <submitter_email>  (937) 
nan

>  <disregarded>  (937) 


>  <LE>  (937) 
-0.441311

>  <submitter_institution>  (937) 
nan

>  <ref_mols>  (937) 
mArh-5cb5_G_0_G,4IQY_0_A

>  <N_constrained_atoms>  (937) 
17.0

>  <ref_url>  (937) 
nan

>  <method>  (937) 
nan

>  <comRMSD>  (937) 
1.012897

>  <N_unconstrained_atoms>  (937) 
5.0

>  <∆∆G>  (937) 
-9.708848

>  <runtime>  (937) 
34.093909

>  <generation_date>  (937) 
nan

$$$$
mArh-x0900_0_A_α-mArh-5cb5_O_0_O_α
     RDKit          3D

 21 22  0  0  0  0  0  0  0  0999 V2000
   -6.2780   14.9670   -1.7540 O   0  0  0  0  0  0  0  0  0  0  0  0
   -5.3280   14.9090   -0.9940 C   0  0  0  0  0  0  0  0  0  0  0  0
   -3.9730   15.2260   -1.2550 N   0  0  0  0  0  0  0  0  0  0  0  0
   -5.4590   14.4630    0.4540 C   0  0  0  0  0  0  0  0  0  0  0  0
   -3.1280   14.8330   -2.4450 C   0  0  0  0  0  0  0  0  0  0  0  0
   -4.0540   14.5750    1.0110 C   0  0  0  0  0  0  0  0  0  0  0  0
   -3.3550   15.4650    0.0310 C   0  0  0  0  0  0  0  0  0  0  0  0
   -3.3670   15.6310   -3.7660 C   0  0  0  0  0  0  0  0  0  0  0  0
   -2.1490   16.1900   -4.6100 C   0  0  0  0  0  0  0  0  0  0  0  0
   -2.4380   17.2770   -5.7340 C   0  0  0  0  0  0  0  0  0  0  0  0
   -2.1870   18.8400   -5.6160 C   0  0  0  0  0  0  0  0  0  0  0  0
   -3.0050   19.7490   -6.6150 C   0  0  0  0  0  0  0  0  0  0  0  0
   -4.1170   20.5990   -6.1150 O   0  0  0  0  0  0  0  0  0  0  0  0
   -4.7620   21.4140   -7.1560 C   0  0  2  0  0  0  0  0  0  0  0  0
   -4.0610   21.2060   -8.3620 O   0  0  0  0  0  0  0  0  0  0  0  0
   -4.5700   22.9700   -6.8860 C   0  0  2  0  0  0  0  0  0  0  0  0
   -5.7800   23.7510   -7.0950 O   0  0  0  0  0  0  0  0  0  0  0  0
   -2.9650   21.9710   -7.9220 C   0  0  2  0  0  0  0  0  0  0  0  0
   -3.5490   23.3640   -7.9650 C   0  0  1  0  0  0  0  0  0  0  0  0
   -1.6620   21.5810   -8.5150 C   0  0  0  0  0  0  0  0  0  0  0  0
   -4.1850   23.8000   -9.1780 O   0  0  0  0  0  0  0  0  0  0  0  0
  1  2  2  0
  2  3  1  0
  2  4  1  0
  3  5  1  0
  4  6  1  0
  3  7  1  0
  6  7  1  0
  5  8  1  0
  8  9  1  0
  9 10  1  0
 10 11  1  0
 11 12  1  0
 12 13  1  0
 14 13  1  1
 14 15  1  0
 14 16  1  0
 16 17  1  6
 15 18  1  0
 16 19  1  0
 18 19  1  0
 18 20  1  6
 19 21  1  6
M  END
>  <%Rank>  (938) 
71.526718

>  <N_hits>  (938) 
2

>  <submitter_name>  (938) 
nan

>  <original SMILES>  (938) 
nan

>  <∆G_unbound>  (938) 
0.098129

>  <∆G_bound>  (938) 
-8.012195

>  <regarded>  (938) 
mArh-x0900_0_A_α,mArh-5cb5_O_0_O_α

>  <ref_pdb>  (938) 
nan

>  <smiles>  (938) 
CC1OC(OCCCCCCN2CCCC2=O)C(O)C1O

>  <submitter_email>  (938) 
nan

>  <disregarded>  (938) 


>  <LE>  (938) 
-0.386206

>  <submitter_institution>  (938) 
nan

>  <ref_mols>  (938) 
mArh-x0900_0_A,mArh-5cb5_O_0_O

>  <N_constrained_atoms>  (938) 
15.0

>  <ref_url>  (938) 
nan

>  <method>  (938) 
nan

>  <comRMSD>  (938) 
0.890802

>  <N_unconstrained_atoms>  (938) 
6.0

>  <∆∆G>  (938) 
-8.110324

>  <runtime>  (938) 
34.436524

>  <generation_date>  (938) 
nan

$$$$
mArh-5cms_H_7_H_γ-mArh-x0587_0_A_α
     RDKit          3D

 23 24  0  0  0  0  0  0  0  0999 V2000
   -1.7300   13.3880   -4.2290 O   0  0  0  0  0  0  0  0  0  0  0  0
   -0.3550   13.5720   -3.9450 C   0  0  2  0  0  0  0  0  0  0  0  0
    0.0490   14.3700   -2.6980 C   0  0  2  0  0  0  0  0  0  0  0  0
    0.3250   14.3120   -5.0810 C   0  0  2  0  0  0  0  0  0  0  0  0
    1.4630   13.5680   -5.4800 O   0  0  0  0  0  0  0  0  0  0  0  0
   -0.9600   14.3830   -1.5550 C   0  0  0  0  0  0  0  0  0  0  0  0
    0.2790   15.7220   -3.1390 O   0  0  0  0  0  0  0  0  0  0  0  0
    0.6760   15.6940   -4.5210 C   0  0  2  0  0  0  0  0  0  0  0  0
    0.0040   16.8560   -5.2340 C   0  0  0  0  0  0  0  0  0  0  0  0
   -2.3760   14.5570   -2.0870 C   0  0  0  0  0  0  0  0  0  0  0  0
   -3.2790   14.8880   -1.0480 O   0  0  0  0  0  0  0  0  0  0  0  0
   -4.6150   14.5390   -1.4440 C   0  0  0  0  0  0  0  0  0  0  0  0
   -4.5280   13.2710   -1.9390 F   0  0  0  0  0  0  0  0  0  0  0  0
   -4.9430   15.3190   -2.5100 F   0  0  0  0  0  0  0  0  0  0  0  0
   -5.6050   14.6210   -0.2810 C   0  0  0  0  0  0  0  0  0  0  0  0
   -6.9310   14.5180   -0.5670 N   0  0  0  0  0  0  0  0  0  0  0  0
   -5.1170   14.7910    0.9650 N   0  0  0  0  0  0  0  0  0  0  0  0
   -7.7900   14.6050    0.4700 C   0  0  0  0  0  0  0  0  0  0  0  0
   -6.0250   14.8710    1.9610 C   0  0  0  0  0  0  0  0  0  0  0  0
   -7.3910   14.7870    1.7690 C   0  0  0  0  0  0  0  0  0  0  0  0
   -8.3020   14.9050    2.9130 C   0  0  0  0  0  0  0  0  0  0  0  0
   -7.7600   14.8770    4.1590 N   0  0  0  0  0  0  0  0  0  0  0  0
   -9.5100   15.0390    2.7420 O   0  0  0  0  0  0  0  0  0  0  0  0
  2  1  1  6
  2  3  1  0
  2  4  1  0
  4  5  1  1
  3  6  1  1
  3  7  1  0
  4  8  1  0
  7  8  1  0
  8  9  1  6
  6 10  1  0
 10 11  1  0
 11 12  1  0
 12 13  1  0
 12 14  1  0
 12 15  1  0
 15 16  2  0
 15 17  1  0
 16 18  1  0
 17 19  2  0
 18 20  2  0
 19 20  1  0
 20 21  1  0
 21 22  1  0
 21 23  2  0
M  END
>  <%Rank>  (939) 
71.603053

>  <N_hits>  (939) 
2

>  <submitter_name>  (939) 
nan

>  <original SMILES>  (939) 
nan

>  <∆G_unbound>  (939) 
1.570408

>  <∆G_bound>  (939) 
-4.01615

>  <regarded>  (939) 
mArh-5cms_H_7_H_γ,mArh-x0587_0_A_α

>  <ref_pdb>  (939) 
nan

>  <smiles>  (939) 
CC1OC(CCOC(F)(F)c2ncc(C(N)=O)cn2)C(O)C1O

>  <submitter_email>  (939) 
nan

>  <disregarded>  (939) 


>  <LE>  (939) 
-0.242894

>  <submitter_institution>  (939) 
nan

>  <ref_mols>  (939) 
mArh-5cms_H_7_H,mArh-x0587_0_A

>  <N_constrained_atoms>  (939) 
21.0

>  <ref_url>  (939) 
nan

>  <method>  (939) 
nan

>  <comRMSD>  (939) 
1.0981

>  <N_unconstrained_atoms>  (939) 
2.0

>  <∆∆G>  (939) 
-5.586558

>  <runtime>  (939) 
42.250327

>  <generation_date>  (939) 
nan

$$$$
5CB5_0_O_β-mArh-6fx_7_0A_γ
     RDKit          3D

 16 16  0  0  0  0  0  0  0  0999 V2000
   -1.5420   20.2570   -8.3790 O   0  0  0  0  0  0  0  0  0  0  0  0
   -0.1830   19.7510   -7.5840 P   0  0  0  0  0  0  0  0  0  0  0  0
   -0.2050   18.3600   -6.6660 O   0  0  0  0  0  0  0  0  0  0  0  0
    0.2290   18.8960   -8.7520 O   0  0  0  0  0  0  0  0  0  0  0  0
    1.0790   20.7030   -7.6280 O   0  0  0  0  0  0  0  0  0  0  0  0
   -1.6500   18.1270   -6.0280 P   0  0  0  0  0  0  0  0  0  0  0  0
   -1.3930   16.7970   -5.2240 O   0  0  0  0  0  0  0  0  0  0  0  0
   -2.7980   17.1970   -6.8150 O   0  0  0  0  0  0  0  0  0  0  0  0
   -2.1000   19.0050   -4.7540 O   0  0  0  0  0  0  0  0  0  0  0  0
   -0.2330   16.0730   -4.9190 C   0  0  1  0  0  0  0  0  0  0  0  0
   -0.0450   16.0350   -3.5410 O   0  0  0  0  0  0  0  0  0  0  0  0
   -0.2370   14.6240   -5.2970 C   0  0  1  0  0  0  0  0  0  0  0  0
    1.0500   14.0770   -5.4650 O   0  0  0  0  0  0  0  0  0  0  0  0
   -0.9940   15.0950   -3.0950 C   0  0  0  0  0  0  0  0  0  0  0  0
   -0.7800   13.9280   -4.0530 C   0  0  1  0  0  0  0  0  0  0  0  0
   -1.9450   13.3050   -4.4110 O   0  0  0  0  0  0  0  0  0  0  0  0
  1  2  1  0
  2  3  1  0
  2  4  1  0
  2  5  1  0
  3  6  1  0
  6  7  1  0
  6  8  1  0
  6  9  1  0
 10  7  1  1
 10 11  1  0
 10 12  1  0
 12 13  1  1
 11 14  1  0
 12 15  1  0
 14 15  1  0
 15 16  1  6
M  CHG  2   4  -1   8  -1
M  END
>  <%Rank>  (940) 
71.679389

>  <N_hits>  (940) 
2

>  <submitter_name>  (940) 
nan

>  <original SMILES>  (940) 
nan

>  <∆G_unbound>  (940) 
1.160673

>  <∆G_bound>  (940) 
-6.757805

>  <regarded>  (940) 
5CB5_0_O_β,mArh-6fx_7_0A_γ

>  <ref_pdb>  (940) 
nan

>  <smiles>  (940) 
[O-][PH](O)(O)O[PH]([O-])(O)OC1OCC(O)C1O

>  <submitter_email>  (940) 
nan

>  <disregarded>  (940) 


>  <LE>  (940) 
-0.494905

>  <submitter_institution>  (940) 
nan

>  <ref_mols>  (940) 
5CB5_0_O,mArh-6fx_7_0A

>  <N_constrained_atoms>  (940) 
16.0

>  <ref_url>  (940) 
nan

>  <method>  (940) 
nan

>  <comRMSD>  (940) 
1.170366

>  <N_unconstrained_atoms>  (940) 
0.0

>  <∆∆G>  (940) 
-7.918479

>  <runtime>  (940) 
26.277699

>  <generation_date>  (940) 
nan

$$$$
mArh-5cb5_R_0_R_β-mArh-5l9k_B_0_B_β
     RDKit          3D

 10  9  0  0  0  0  0  0  0  0999 V2000
   -1.2120   20.6840   -8.9070 O   0  0  0  0  0  0  0  0  0  0  0  0
   -0.2820   19.9620   -7.8330 P   0  0  0  0  0  0  0  0  0  0  0  0
   -1.2460   19.8340   -6.5470 N   0  0  0  0  0  0  0  0  0  0  0  0
    1.0090   20.6810   -7.6900 O   0  0  0  0  0  0  0  0  0  0  0  0
   -0.1130   18.5980   -8.6730 O   0  0  0  0  0  0  0  0  0  0  0  0
   -1.4820   18.2830   -6.2060 P   0  0  0  0  0  0  0  0  0  0  0  0
   -2.6200   20.7500   -6.8210 P   0  0  0  0  0  0  0  0  0  0  0  0
   -0.0760   17.5210   -6.2420 O   0  0  0  0  0  0  0  0  0  0  0  0
   -2.5440   17.5500   -6.9370 O   0  0  0  0  0  0  0  0  0  0  0  0
   -1.6860   18.1750   -4.6360 O   0  0  0  0  0  0  0  0  0  0  0  0
  1  2  1  0
  2  3  1  0
  2  4  2  0
  2  5  1  0
  3  6  1  0
  3  7  1  0
  6  8  1  0
  6  9  2  0
  6 10  1  0
M  END
>  <%Rank>  (941) 
71.755725

>  <N_hits>  (941) 
2

>  <submitter_name>  (941) 
nan

>  <original SMILES>  (941) 
nan

>  <∆G_unbound>  (941) 
0.516115

>  <∆G_bound>  (941) 
-6.659041

>  <regarded>  (941) 
mArh-5cb5_R_0_R_β,mArh-5l9k_B_0_B_β

>  <ref_pdb>  (941) 
nan

>  <smiles>  (941) 
O=P(O)(O)N(P)P(=O)(O)O

>  <submitter_email>  (941) 
nan

>  <disregarded>  (941) 


>  <LE>  (941) 
-0.717516

>  <submitter_institution>  (941) 
nan

>  <ref_mols>  (941) 
mArh-5cb5_R_0_R,mArh-5l9k_B_0_B

>  <N_constrained_atoms>  (941) 
10.0

>  <ref_url>  (941) 
nan

>  <method>  (941) 
nan

>  <comRMSD>  (941) 
1.115218

>  <N_unconstrained_atoms>  (941) 
0.0

>  <∆∆G>  (941) 
-7.175156

>  <runtime>  (941) 
27.371591

>  <generation_date>  (941) 
nan

$$$$
5CB5_0_H_α-mArh-EU0716_0_A_α
     RDKit          3D

 29 30  0  0  0  0  0  0  0  0999 V2000
   -1.6420   22.4420   -8.1010 C   0  0  0  0  0  0  0  0  0  0  0  0
   -2.9630   22.0140   -8.6990 C   0  0  1  0  0  0  0  0  0  0  0  0
   -3.2780   20.8450   -8.0370 O   0  0  0  0  0  0  0  0  0  0  0  0
   -4.1190   22.9640   -8.4060 C   0  0  1  0  0  0  0  0  0  0  0  0
   -5.0310   23.0900   -9.4900 O   0  0  0  0  0  0  0  0  0  0  0  0
   -3.5720   21.3500   -6.7700 C   0  0  1  0  0  0  0  0  0  0  0  0
   -4.7460   22.3150   -7.1550 C   0  0  1  0  0  0  0  0  0  0  0  0
   -3.7380   20.1650   -5.9630 O   0  0  0  0  0  0  0  0  0  0  0  0
   -5.0840   23.3820   -6.2470 O   0  0  0  0  0  0  0  0  0  0  0  0
   -2.5080   19.2750   -5.8700 C   0  0  0  0  0  0  0  0  0  0  0  0
   -2.6930   17.6700   -6.0840 C   0  0  0  0  0  0  0  0  0  0  0  0
   -2.5890   16.6360   -4.8450 C   0  0  0  0  0  0  0  0  0  0  0  0
   -3.6980   15.5290   -4.3980 C   0  0  0  0  0  0  0  0  0  0  0  0
   -4.0650   15.4120   -2.8270 C   0  0  0  0  0  0  0  0  0  0  0  0
   -5.4390   14.9820   -2.2390 N   0  0  0  0  0  0  0  0  0  0  0  0
   -5.4890   14.8570   -0.8980 C   0  0  0  0  0  0  0  0  0  0  0  0
   -4.1200   15.2570   -0.4120 C   0  0  0  0  0  0  0  0  0  0  0  0
   -6.3980   14.4310    0.3660 C   0  0  2  0  0  0  0  0  0  0  0  0
   -7.8540   14.9030    0.8280 C   0  0  1  0  0  0  0  0  0  0  0  0
   -5.4960   14.8530    1.5370 C   0  0  2  0  0  0  0  0  0  0  0  0
   -9.0780   14.1340    0.3810 C   0  0  0  0  0  0  0  0  0  0  0  0
   -4.3320   13.8860    1.7400 C   0  0  0  0  0  0  0  0  0  0  0  0
   -6.3170   15.0560    2.7440 N   0  0  0  0  0  0  0  0  0  0  0  0
   -7.7500   15.1640    2.3840 C   0  0  2  0  0  0  0  0  0  0  0  0
  -10.2990   15.0510    0.5210 C   0  0  0  0  0  0  0  0  0  0  0  0
   -8.6290   14.6450    3.5430 C   0  0  0  0  0  0  0  0  0  0  0  0
   -7.9570   14.4220    4.7320 N   0  0  0  0  0  0  0  0  0  0  0  0
   -9.8420   14.5180    3.4350 O   0  0  0  0  0  0  0  0  0  0  0  0
   -8.3240   15.1030    5.9500 C   0  0  0  0  0  0  0  0  0  0  0  0
  2  1  1  1
  2  3  1  0
  2  4  1  0
  4  5  1  6
  3  6  1  0
  4  7  1  0
  6  7  1  0
  6  8  1  1
  7  9  1  1
  8 10  1  0
 10 11  1  0
 11 12  1  0
 12 13  1  0
 13 14  1  0
 14 15  1  0
 15 16  2  3
 16 17  1  0
 18 16  1  6
 18 19  1  0
 18 20  1  0
 19 21  1  1
 20 22  1  1
 20 23  1  0
 19 24  1  0
 23 24  1  0
 21 25  1  0
 24 26  1  1
 26 27  1  0
 26 28  2  0
 27 29  1  0
M  END
>  <%Rank>  (942) 
71.832061

>  <N_hits>  (942) 
2

>  <submitter_name>  (942) 
nan

>  <original SMILES>  (942) 
nan

>  <∆G_unbound>  (942) 
0.692793

>  <∆G_bound>  (942) 
-5.78185

>  <regarded>  (942) 
5CB5_0_H_α,mArh-EU0716_0_A_α

>  <ref_pdb>  (942) 
nan

>  <smiles>  (942) 
CCC1C(C(=O)NC)NC(C)C1C(C)=NCCCCCOC1OC(C)C(O)C1O

>  <submitter_email>  (942) 
nan

>  <disregarded>  (942) 


>  <LE>  (942) 
-0.223264

>  <submitter_institution>  (942) 
nan

>  <ref_mols>  (942) 
5CB5_0_H,mArh-EU0716_0_A

>  <N_constrained_atoms>  (942) 
24.0

>  <ref_url>  (942) 
nan

>  <method>  (942) 
nan

>  <comRMSD>  (942) 
1.084124

>  <N_unconstrained_atoms>  (942) 
5.0

>  <∆∆G>  (942) 
-6.474643

>  <runtime>  (942) 
32.406501

>  <generation_date>  (942) 
nan

$$$$
mArh-5cms_K_10_K_α-mArh-5l9k_A_0_A_β
     RDKit          3D

 17 17  0  0  0  0  0  0  0  0999 V2000
   -2.3460   21.1940   -8.0290 C   0  0  0  0  0  0  0  0  0  0  0  0
   -1.0620   19.9760   -7.7420 P   0  0  1  0  0  0  0  0  0  0  0  0
   -1.3100   19.5300   -6.2410 O   0  0  0  0  0  0  0  0  0  0  0  0
   -2.2330   22.0650   -9.2450 C   0  0  1  0  0  0  0  0  0  0  0  0
   -0.8710   18.7950   -8.6360 O   0  0  0  0  0  0  0  0  0  0  0  0
    0.2850   20.8360   -7.6540 O   0  0  0  0  0  0  0  0  0  0  0  0
   -3.0010   21.5590  -10.3630 O   0  0  0  0  0  0  0  0  0  0  0  0
   -2.7120   23.4830   -8.9980 C   0  0  1  0  0  0  0  0  0  0  0  0
   -1.6190   24.3670   -9.0650 O   0  0  0  0  0  0  0  0  0  0  0  0
   -1.7950   18.0720   -5.8620 P   0  0  0  0  0  0  0  0  0  0  0  0
   -4.1400   22.4020  -10.5900 C   0  0  1  0  0  0  0  0  0  0  0  0
   -3.8530   23.7650  -10.0010 C   0  0  2  0  0  0  0  0  0  0  0  0
   -4.5100   22.4740  -11.9550 O   0  0  0  0  0  0  0  0  0  0  0  0
   -3.5690   24.7020  -11.0600 O   0  0  0  0  0  0  0  0  0  0  0  0
   -0.5400   17.1600   -6.1460 O   0  0  0  0  0  0  0  0  0  0  0  0
   -2.3420   17.8040   -4.5380 O   0  0  0  0  0  0  0  0  0  0  0  0
   -2.8020   17.6570   -7.0030 O   0  0  0  0  0  0  0  0  0  0  0  0
  1  2  1  0
  2  3  1  0
  4  1  1  1
  2  5  2  0
  2  6  1  1
  4  7  1  0
  4  8  1  0
  8  9  1  6
  3 10  1  0
  7 11  1  0
  8 12  1  0
 11 12  1  0
 11 13  1  6
 12 14  1  6
 10 15  1  0
 10 16  2  0
 10 17  1  0
M  END
>  <%Rank>  (943) 
71.908397

>  <N_hits>  (943) 
2

>  <submitter_name>  (943) 
nan

>  <original SMILES>  (943) 
nan

>  <∆G_unbound>  (943) 
1.703844

>  <∆G_bound>  (943) 
-6.090024

>  <regarded>  (943) 
mArh-5cms_K_10_K_α,mArh-5l9k_A_0_A_β

>  <ref_pdb>  (943) 
nan

>  <smiles>  (943) 
O=P(O)(O)OP(=O)(O)CC1OC(O)C(O)C1O

>  <submitter_email>  (943) 
nan

>  <disregarded>  (943) 


>  <LE>  (943) 
-0.458463

>  <submitter_institution>  (943) 
nan

>  <ref_mols>  (943) 
mArh-5cms_K_10_K,mArh-5l9k_A_0_A

>  <N_constrained_atoms>  (943) 
17.0

>  <ref_url>  (943) 
nan

>  <method>  (943) 
nan

>  <comRMSD>  (943) 
1.178864

>  <N_unconstrained_atoms>  (943) 
0.0

>  <∆∆G>  (943) 
-7.793868

>  <runtime>  (943) 
36.397138

>  <generation_date>  (943) 
nan

$$$$
mArh-x0805_0_A_α-mArh-5cb5_D_0_D_α
     RDKit          3D

 22 23  0  0  0  0  0  0  0  0999 V2000
   -3.0620   15.9490   -0.8970 O   0  0  0  0  0  0  0  0  0  0  0  0
   -3.9230   15.7410    0.2310 C   0  0  0  0  0  0  0  0  0  0  0  0
   -2.9500   14.9280   -1.8100 C   0  0  0  0  0  0  0  0  0  0  0  0
   -3.5650   13.6880   -1.5960 C   0  0  0  0  0  0  0  0  0  0  0  0
   -2.1860   15.1370   -3.0190 C   0  0  0  0  0  0  0  0  0  0  0  0
   -1.4800   16.4540   -3.3890 C   0  0  0  0  0  0  0  0  0  0  0  0
   -2.0830   14.0720   -3.9250 C   0  0  0  0  0  0  0  0  0  0  0  0
   -3.4430   12.6580   -2.5240 C   0  0  0  0  0  0  0  0  0  0  0  0
   -1.0030   16.7580   -4.8530 C   0  0  0  0  0  0  0  0  0  0  0  0
   -2.7030   12.8500   -3.6820 C   0  0  0  0  0  0  0  0  0  0  0  0
   -1.8190   17.7540   -5.7680 C   0  0  0  0  0  0  0  0  0  0  0  0
   -1.7080   19.3000   -5.5150 C   0  0  0  0  0  0  0  0  0  0  0  0
   -3.0350   20.0710   -5.7700 C   0  0  0  0  0  0  0  0  0  0  0  0
   -3.1430   21.4450   -6.0730 O   0  0  0  0  0  0  0  0  0  0  0  0
   -4.3940   21.7860   -6.7000 C   0  0  2  0  0  0  0  0  0  0  0  0
   -4.2430   21.3260   -8.0050 O   0  0  0  0  0  0  0  0  0  0  0  0
   -4.4090   23.3320   -6.8460 C   0  0  2  0  0  0  0  0  0  0  0  0
   -5.7410   23.8350   -7.0650 O   0  0  0  0  0  0  0  0  0  0  0  0
   -3.0360   22.0300   -8.0390 C   0  0  2  0  0  0  0  0  0  0  0  0
   -3.5210   23.4750   -8.0850 C   0  0  1  0  0  0  0  0  0  0  0  0
   -2.0860   21.4100   -8.9780 C   0  0  0  0  0  0  0  0  0  0  0  0
   -4.3520   23.8160   -9.2080 O   0  0  0  0  0  0  0  0  0  0  0  0
  1  2  1  0
  1  3  1  0
  3  4  2  0
  3  5  1  0
  5  6  1  0
  5  7  2  0
  4  8  1  0
  6  9  1  0
  7 10  1  0
  8 10  2  0
  9 11  1  0
 11 12  1  0
 12 13  1  0
 13 14  1  0
 15 14  1  1
 15 16  1  0
 15 17  1  0
 17 18  1  6
 16 19  1  0
 17 20  1  0
 19 20  1  0
 19 21  1  6
 20 22  1  6
M  END
>  <%Rank>  (944) 
71.984733

>  <N_hits>  (944) 
2

>  <submitter_name>  (944) 
nan

>  <original SMILES>  (944) 
nan

>  <∆G_unbound>  (944) 
0.408818

>  <∆G_bound>  (944) 
-7.295915

>  <regarded>  (944) 
mArh-x0805_0_A_α,mArh-5cb5_D_0_D_α

>  <ref_pdb>  (944) 
nan

>  <smiles>  (944) 
COc1ccccc1CCCCCOC1OC(C)C(O)C1O

>  <submitter_email>  (944) 
nan

>  <disregarded>  (944) 


>  <LE>  (944) 
-0.350215

>  <submitter_institution>  (944) 
nan

>  <ref_mols>  (944) 
mArh-x0805_0_A,mArh-5cb5_D_0_D

>  <N_constrained_atoms>  (944) 
17.0

>  <ref_url>  (944) 
nan

>  <method>  (944) 
nan

>  <comRMSD>  (944) 
0.978119

>  <N_unconstrained_atoms>  (944) 
5.0

>  <∆∆G>  (944) 
-7.704733

>  <runtime>  (944) 
36.078952

>  <generation_date>  (944) 
nan

$$$$
5CB5_0_N_β-mArh-5cb5_Q_0_Q_γ
     RDKit          3D

 16 16  0  0  0  0  0  0  0  0999 V2000
   -1.5810   20.2920   -8.4050 O   0  0  0  0  0  0  0  0  0  0  0  0
   -0.2260   19.8030   -7.6010 P   0  0  0  0  0  0  0  0  0  0  0  0
   -0.2570   18.4550   -6.6370 O   0  0  0  0  0  0  0  0  0  0  0  0
    0.1860   18.9050   -8.7410 O   0  0  0  0  0  0  0  0  0  0  0  0
    1.0460   20.7390   -7.6660 O   0  0  0  0  0  0  0  0  0  0  0  0
   -1.6970   18.2320   -5.9980 P   0  0  0  0  0  0  0  0  0  0  0  0
   -1.3660   16.9260   -5.1850 O   0  0  0  0  0  0  0  0  0  0  0  0
   -2.8380   17.2710   -6.7680 O   0  0  0  0  0  0  0  0  0  0  0  0
   -2.1490   19.1310   -4.7370 O   0  0  0  0  0  0  0  0  0  0  0  0
   -0.1350   16.2970   -4.9280 C   0  0  1  0  0  0  0  0  0  0  0  0
    0.1340   16.3230   -3.5610 O   0  0  0  0  0  0  0  0  0  0  0  0
   -0.0410   14.8450   -5.2900 C   0  0  1  0  0  0  0  0  0  0  0  0
    1.2330   14.4550   -5.7260 O   0  0  0  0  0  0  0  0  0  0  0  0
   -0.6080   15.2460   -3.0520 C   0  0  0  0  0  0  0  0  0  0  0  0
   -0.1460   14.1170   -3.9570 C   0  0  1  0  0  0  0  0  0  0  0  0
   -1.0570   13.1040   -4.0880 O   0  0  0  0  0  0  0  0  0  0  0  0
  1  2  1  0
  2  3  1  0
  2  4  1  0
  2  5  1  0
  3  6  1  0
  6  7  1  0
  6  8  1  0
  6  9  1  0
 10  7  1  1
 10 11  1  0
 10 12  1  0
 12 13  1  1
 11 14  1  0
 12 15  1  0
 14 15  1  0
 15 16  1  6
M  CHG  2   4  -1   8  -1
M  END
>  <%Rank>  (945) 
72.061069

>  <N_hits>  (945) 
2

>  <submitter_name>  (945) 
nan

>  <original SMILES>  (945) 
nan

>  <∆G_unbound>  (945) 
1.160673

>  <∆G_bound>  (945) 
-6.749384

>  <regarded>  (945) 
5CB5_0_N_β,mArh-5cb5_Q_0_Q_γ

>  <ref_pdb>  (945) 
nan

>  <smiles>  (945) 
[O-][PH](O)(O)O[PH]([O-])(O)OC1OCC(O)C1O

>  <submitter_email>  (945) 
nan

>  <disregarded>  (945) 


>  <LE>  (945) 
-0.494379

>  <submitter_institution>  (945) 
nan

>  <ref_mols>  (945) 
5CB5_0_N,mArh-5cb5_Q_0_Q

>  <N_constrained_atoms>  (945) 
16.0

>  <ref_url>  (945) 
nan

>  <method>  (945) 
nan

>  <comRMSD>  (945) 
1.175777

>  <N_unconstrained_atoms>  (945) 
0.0

>  <∆∆G>  (945) 
-7.910058

>  <runtime>  (945) 
33.926009

>  <generation_date>  (945) 
nan

$$$$
5MQX_0_A_γ-5L9K_0_B_β
     RDKit          3D

 19 19  0  0  0  0  0  0  0  0999 V2000
    0.1450   10.9020   -1.6960 O   0  0  0  0  0  0  0  0  0  0  0  0
   -0.8970   11.4870   -2.4100 C   0  0  1  0  0  0  0  0  0  0  0  0
   -1.1480   12.8680   -1.7570 C   0  0  0  0  0  0  0  0  0  0  0  0
   -0.4220   11.8850   -3.8090 C   0  0  1  0  0  0  0  0  0  0  0  0
   -1.0920   11.1450   -4.7180 O   0  0  0  0  0  0  0  0  0  0  0  0
   -0.4630   13.7290   -2.5910 O   0  0  0  0  0  0  0  0  0  0  0  0
   -0.7480   13.4220   -3.8910 C   0  0  2  0  0  0  0  0  0  0  0  0
   -2.2140   13.6170   -4.2700 C   0  0  0  0  0  0  0  0  0  0  0  0
   -2.5360   15.0930   -4.0820 C   0  0  0  0  0  0  0  0  0  0  0  0
   -2.3500   15.6260   -5.4790 C   0  0  0  0  0  0  0  0  0  0  0  0
   -1.3720   16.5550   -5.7020 O   0  0  0  0  0  0  0  0  0  0  0  0
   -1.9360   18.0010   -5.5570 P   0  0  0  0  0  0  0  0  0  0  0  0
   -0.6390   18.6920   -6.2490 O   0  0  0  0  0  0  0  0  0  0  0  0
   -2.5300   19.3180   -5.2910 O   0  0  0  0  0  0  0  0  0  0  0  0
   -3.0820   17.6200   -6.6680 O   0  0  0  0  0  0  0  0  0  0  0  0
   -0.7520   19.3080   -7.6860 P   0  0  0  0  0  0  0  0  0  0  0  0
   -1.8730   20.5260   -8.0810 O   0  0  0  0  0  0  0  0  0  0  0  0
    0.2590   20.3940   -7.5000 O   0  0  0  0  0  0  0  0  0  0  0  0
    0.1640   18.7320   -8.8580 O   0  0  0  0  0  0  0  0  0  0  0  0
  2  1  1  1
  2  3  1  0
  2  4  1  0
  4  5  1  6
  3  6  1  0
  4  7  1  0
  6  7  1  0
  7  8  1  1
  8  9  1  0
  9 10  1  0
 10 11  1  0
 11 12  1  0
 12 13  1  0
 12 14  1  0
 12 15  1  0
 13 16  1  0
 16 17  1  0
 16 18  1  0
 16 19  1  0
M  CHG  2  14  -1  18  -1
M  END
>  <%Rank>  (946) 
72.137405

>  <N_hits>  (946) 
2

>  <submitter_name>  (946) 
nan

>  <original SMILES>  (946) 
nan

>  <∆G_unbound>  (946) 
2.435928

>  <∆G_bound>  (946) 
-7.355602

>  <regarded>  (946) 
5MQX_0_A_γ,5L9K_0_B_β

>  <ref_pdb>  (946) 
nan

>  <smiles>  (946) 
[O-][PH](O)(O)O[PH]([O-])(O)OCCCC1OCC(O)C1O

>  <submitter_email>  (946) 
nan

>  <disregarded>  (946) 


>  <LE>  (946) 
-0.515344

>  <submitter_institution>  (946) 
nan

>  <ref_mols>  (946) 
5MQX_0_A,5L9K_0_B

>  <N_constrained_atoms>  (946) 
17.0

>  <ref_url>  (946) 
nan

>  <method>  (946) 
nan

>  <comRMSD>  (946) 
1.150015

>  <N_unconstrained_atoms>  (946) 
2.0

>  <∆∆G>  (946) 
-9.79153

>  <runtime>  (946) 
33.469022

>  <generation_date>  (946) 
nan

$$$$
mArh-5cms_L_11_L_α-mArh-5cms_M_12_M_γ
     RDKit          3D

 23 24  0  0  0  0  0  0  0  0999 V2000
   -1.3130   21.1330   -7.8890 C   0  0  0  0  0  0  0  0  0  0  0  0
   -1.8390   22.0330   -8.9680 C   0  0  1  0  0  0  0  0  0  0  0  0
   -3.1000   21.5220   -9.4680 O   0  0  0  0  0  0  0  0  0  0  0  0
   -2.1300   23.4730   -8.5150 C   0  0  1  0  0  0  0  0  0  0  0  0
   -1.2540   24.4210   -9.0220 O   0  0  0  0  0  0  0  0  0  0  0  0
   -3.8880   22.3300   -8.6370 C   0  0  1  0  0  0  0  0  0  0  0  0
   -3.5150   23.6800   -9.0780 C   0  0  2  0  0  0  0  0  0  0  0  0
   -5.2570   22.1230   -8.4410 O   0  0  0  0  0  0  0  0  0  0  0  0
   -3.6400   23.9980  -10.4720 O   0  0  0  0  0  0  0  0  0  0  0  0
   -5.3030   21.7260   -7.0630 C   0  0  0  0  0  0  0  0  0  0  0  0
   -4.3770   20.5210   -6.9950 C   0  0  0  0  0  0  0  0  0  0  0  0
   -3.1660   20.4490   -6.0400 C   0  0  0  0  0  0  0  0  0  0  0  0
   -2.3060   19.2090   -6.4110 C   0  0  0  0  0  0  0  0  0  0  0  0
   -1.4470   18.5520   -5.3150 C   0  0  0  0  0  0  0  0  0  0  0  0
   -0.0670   18.0830   -5.8410 C   0  0  0  0  0  0  0  0  0  0  0  0
    0.6470   16.8870   -5.1730 C   0  0  0  0  0  0  0  0  0  0  0  0
   -0.2040   15.7270   -4.6530 C   0  0  2  0  0  0  0  0  0  0  0  0
   -0.1380   15.5860   -3.2270 O   0  0  0  0  0  0  0  0  0  0  0  0
   -0.0110   14.2960   -5.1380 C   0  0  1  0  0  0  0  0  0  0  0  0
    1.2490   13.6940   -4.8600 O   0  0  0  0  0  0  0  0  0  0  0  0
   -0.8260   14.3560   -2.9420 C   0  0  0  0  0  0  0  0  0  0  0  0
   -1.1270   13.7070   -4.2960 C   0  0  2  0  0  0  0  0  0  0  0  0
   -1.1330   12.2900   -4.2880 O   0  0  0  0  0  0  0  0  0  0  0  0
  2  1  1  1
  2  3  1  0
  2  4  1  0
  4  5  1  6
  3  6  1  0
  4  7  1  0
  6  7  1  0
  6  8  1  6
  7  9  1  6
  8 10  1  0
 10 11  1  0
 11 12  1  0
 12 13  1  0
 13 14  1  0
 14 15  1  0
 15 16  1  0
 17 16  1  6
 17 18  1  0
 17 19  1  0
 19 20  1  1
 18 21  1  0
 19 22  1  0
 21 22  1  0
 22 23  1  1
M  END
>  <%Rank>  (947) 
72.21374

>  <N_hits>  (947) 
2

>  <submitter_name>  (947) 
nan

>  <original SMILES>  (947) 
nan

>  <∆G_unbound>  (947) 
1.293032

>  <∆G_bound>  (947) 
-6.8303

>  <regarded>  (947) 
mArh-5cms_L_11_L_α,mArh-5cms_M_12_M_γ

>  <ref_pdb>  (947) 
nan

>  <smiles>  (947) 
CC1OC(OCCCCCCCC2OCC(O)C2O)C(O)C1O

>  <submitter_email>  (947) 
nan

>  <disregarded>  (947) 


>  <LE>  (947) 
-0.353188

>  <submitter_institution>  (947) 
nan

>  <ref_mols>  (947) 
mArh-5cms_L_11_L,mArh-5cms_M_12_M

>  <N_constrained_atoms>  (947) 
17.0

>  <ref_url>  (947) 
nan

>  <method>  (947) 
nan

>  <comRMSD>  (947) 
0.952462

>  <N_unconstrained_atoms>  (947) 
6.0

>  <∆∆G>  (947) 
-8.123331

>  <runtime>  (947) 
47.686054

>  <generation_date>  (947) 
nan

$$$$
mArh-3vfq_B_0_A_α-mArh-x0438_0_A_α
     RDKit          3D

 30 32  0  0  0  0  0  0  0  0999 V2000
   -3.1260   20.7060   -7.5600 C   0  0  0  0  0  0  0  0  0  0  0  0
   -4.1740   21.3310   -8.4350 C   0  0  2  0  0  0  0  0  0  0  0  0
   -3.9280   22.6910   -8.5990 O   0  0  0  0  0  0  0  0  0  0  0  0
   -5.5920   21.2330   -7.9040 C   0  0  1  0  0  0  0  0  0  0  0  0
   -5.3880   21.2890   -6.4650 O   0  0  0  0  0  0  0  0  0  0  0  0
   -4.9960   22.8910   -9.4740 C   0  0  1  0  0  0  0  0  0  0  0  0
   -6.1850   22.4630   -8.6160 C   0  0  1  0  0  0  0  0  0  0  0  0
   -5.0280   24.2260   -9.9030 O   0  0  0  0  0  0  0  0  0  0  0  0
   -7.3190   22.1250   -9.4220 O   0  0  0  0  0  0  0  0  0  0  0  0
   -3.9490   21.5170   -6.1540 C   0  0  0  0  0  0  0  0  0  0  0  0
   -2.9590   20.3450   -5.6700 C   0  0  0  0  0  0  0  0  0  0  0  0
   -2.7830   18.9580   -6.4560 C   0  0  0  0  0  0  0  0  0  0  0  0
   -2.2630   17.7130   -5.6030 C   0  0  0  0  0  0  0  0  0  0  0  0
   -3.1170   16.3540   -5.4900 C   0  0  0  0  0  0  0  0  0  0  0  0
   -3.1910   15.7150   -4.0360 C   0  0  0  0  0  0  0  0  0  0  0  0
   -4.4240   14.9010   -3.4440 C   0  0  0  0  0  0  0  0  0  0  0  0
   -4.3960   14.8770   -1.8920 C   0  0  0  0  0  0  0  0  0  0  0  0
   -5.4310   14.7180   -0.8730 C   0  0  0  0  0  0  0  0  0  0  0  0
   -3.1090   15.0280   -1.3640 C   0  0  0  0  0  0  0  0  0  0  0  0
   -6.8190   14.5340   -0.8470 N   0  0  0  0  0  0  0  0  0  0  0  0
   -5.1280   14.7210    0.5010 C   0  0  0  0  0  0  0  0  0  0  0  0
   -2.8200   15.0300   -0.0060 C   0  0  0  0  0  0  0  0  0  0  0  0
   -7.2540   14.4340    0.4810 C   0  0  0  0  0  0  0  0  0  0  0  0
   -6.2400   14.5520    1.2890 N   0  0  0  0  0  0  0  0  0  0  0  0
   -3.8140   14.8800    0.9360 C   0  0  0  0  0  0  0  0  0  0  0  0
   -8.6790   14.2100    0.8980 C   0  0  0  0  0  0  0  0  0  0  0  0
   -9.2510   15.2220    2.2740 S   0  0  0  0  0  0  0  0  0  0  0  0
   -7.9750   15.2490    3.5250 C   0  0  0  0  0  0  0  0  0  0  0  0
  -10.4240   14.5790    2.8490 O   0  0  0  0  0  0  0  0  0  0  0  0
   -9.4220   16.5590    1.7570 O   0  0  0  0  0  0  0  0  0  0  0  0
  2  1  1  1
  2  3  1  0
  2  4  1  0
  4  5  1  1
  3  6  1  0
  4  7  1  0
  6  7  1  0
  6  8  1  1
  7  9  1  6
  5 10  1  0
 10 11  1  0
 11 12  1  0
 12 13  1  0
 13 14  1  0
 14 15  1  0
 15 16  1  0
 16 17  1  0
 17 18  1  0
 17 19  2  0
 18 20  1  0
 18 21  2  0
 19 22  1  0
 20 23  1  0
 21 24  1  0
 23 24  2  0
 21 25  1  0
 22 25  2  0
 23 26  1  0
 27 26  1  0
 27 28  1  0
 27 29  2  0
 27 30  2  0
M  END
>  <%Rank>  (948) 
72.290076

>  <N_hits>  (948) 
2

>  <submitter_name>  (948) 
nan

>  <original SMILES>  (948) 
nan

>  <∆G_unbound>  (948) 
0.850766

>  <∆G_bound>  (948) 
-5.907875

>  <regarded>  (948) 
mArh-3vfq_B_0_A_α,mArh-x0438_0_A_α

>  <ref_pdb>  (948) 
nan

>  <smiles>  (948) 
CC1OC(O)C(O)C1OCCCCCCCc1cccc2nc(CS(C)(=O)=O)[nH]c12

>  <submitter_email>  (948) 
nan

>  <disregarded>  (948) 


>  <LE>  (948) 
-0.225288

>  <submitter_institution>  (948) 
nan

>  <ref_mols>  (948) 
mArh-3vfq_B_0_A,mArh-x0438_0_A

>  <N_constrained_atoms>  (948) 
23.0

>  <ref_url>  (948) 
nan

>  <method>  (948) 
nan

>  <comRMSD>  (948) 
1.026798

>  <N_unconstrained_atoms>  (948) 
7.0

>  <∆∆G>  (948) 
-6.758641

>  <runtime>  (948) 
48.772248

>  <generation_date>  (948) 
nan

$$$$
5CMS_0_O_α-5CMS_0_I_β
     RDKit          3D

 17 17  0  0  0  0  0  0  0  0999 V2000
   -1.0530   21.8180   -8.4500 C   0  0  0  0  0  0  0  0  0  0  0  0
   -0.3550   20.2250   -8.0720 P   0  0  0  0  0  0  0  0  0  0  0  0
   -1.2770   19.8490   -6.8880 O   0  0  0  0  0  0  0  0  0  0  0  0
   -0.8010   22.4110   -9.8550 C   0  0  1  0  0  0  0  0  0  0  0  0
    0.9490   19.9710   -7.1630 O   0  0  0  0  0  0  0  0  0  0  0  0
   -0.9690   18.8300   -8.7860 O   0  0  0  0  0  0  0  0  0  0  0  0
   -1.5480   21.8020  -10.8640 O   0  0  0  0  0  0  0  0  0  0  0  0
   -1.2020   23.8800  -10.0310 C   0  0  1  0  0  0  0  0  0  0  0  0
   -0.5460   24.4320  -11.1260 O   0  0  0  0  0  0  0  0  0  0  0  0
   -1.5260   18.2830   -6.3760 P   0  0  0  0  0  0  0  0  0  0  0  0
   -2.7960   22.3620  -10.8400 C   0  0  2  0  0  0  0  0  0  0  0  0
   -2.6710   23.7710  -10.4110 C   0  0  2  0  0  0  0  0  0  0  0  0
   -3.6650   21.7860   -9.9350 O   0  0  0  0  0  0  0  0  0  0  0  0
   -2.8930   24.6660  -11.4880 O   0  0  0  0  0  0  0  0  0  0  0  0
   -0.3330   17.4440   -5.5430 O   0  0  0  0  0  0  0  0  0  0  0  0
   -2.0530   18.8040   -5.0770 O   0  0  0  0  0  0  0  0  0  0  0  0
   -2.8260   17.4640   -6.7440 O   0  0  0  0  0  0  0  0  0  0  0  0
  1  2  1  0
  2  3  1  0
  4  1  1  1
  2  5  1  0
  2  6  1  0
  4  7  1  0
  4  8  1  0
  8  9  1  6
  3 10  1  0
  7 11  1  0
  8 12  1  0
 11 12  1  0
 11 13  1  1
 12 14  1  6
 10 15  1  0
 10 16  1  0
 10 17  1  0
M  CHG  2   5  -1  16  -1
M  END
>  <%Rank>  (949) 
72.366412

>  <N_hits>  (949) 
2

>  <submitter_name>  (949) 
nan

>  <original SMILES>  (949) 
nan

>  <∆G_unbound>  (949) 
1.818629

>  <∆G_bound>  (949) 
-4.427584

>  <regarded>  (949) 
5CMS_0_O_α,5CMS_0_I_β

>  <ref_pdb>  (949) 
nan

>  <smiles>  (949) 
[O-][PH](O)(O)O[PH]([O-])(O)CC1OC(O)C(O)C1O

>  <submitter_email>  (949) 
nan

>  <disregarded>  (949) 


>  <LE>  (949) 
-0.367424

>  <submitter_institution>  (949) 
nan

>  <ref_mols>  (949) 
5CMS_0_O,5CMS_0_I

>  <N_constrained_atoms>  (949) 
17.0

>  <ref_url>  (949) 
nan

>  <method>  (949) 
nan

>  <comRMSD>  (949) 
1.137012

>  <N_unconstrained_atoms>  (949) 
0.0

>  <∆∆G>  (949) 
-6.246213

>  <runtime>  (949) 
31.828464

>  <generation_date>  (949) 
nan

$$$$
5CB5_0_E_β-5CB5_0_E_γ
     RDKit          3D

 16 16  0  0  0  0  0  0  0  0999 V2000
   -0.6940   20.9370   -8.5020 O   0  0  0  0  0  0  0  0  0  0  0  0
   -0.3900   19.6010   -7.5740 P   0  0  0  0  0  0  0  0  0  0  0  0
   -1.6250   18.5200   -7.4280 O   0  0  0  0  0  0  0  0  0  0  0  0
    0.0920   18.8460   -8.7800 O   0  0  0  0  0  0  0  0  0  0  0  0
    0.9900   19.3640   -6.8370 O   0  0  0  0  0  0  0  0  0  0  0  0
   -1.9790   17.8460   -6.0180 P   0  0  0  0  0  0  0  0  0  0  0  0
   -0.6690   16.9650   -5.9170 O   0  0  0  0  0  0  0  0  0  0  0  0
   -2.8520   16.3970   -6.0590 O   0  0  0  0  0  0  0  0  0  0  0  0
   -1.7710   18.6400   -4.6310 O   0  0  0  0  0  0  0  0  0  0  0  0
   -0.2850   16.0520   -4.8990 C   0  0  1  0  0  0  0  0  0  0  0  0
   -1.1970   16.0250   -3.8480 O   0  0  0  0  0  0  0  0  0  0  0  0
   -0.0340   14.6090   -5.2500 C   0  0  1  0  0  0  0  0  0  0  0  0
    1.1470   14.0940   -4.6720 O   0  0  0  0  0  0  0  0  0  0  0  0
   -1.0810   14.7740   -3.2390 C   0  0  0  0  0  0  0  0  0  0  0  0
   -1.1570   13.9120   -4.4890 C   0  0  2  0  0  0  0  0  0  0  0  0
   -0.8010   12.6040   -4.2760 O   0  0  0  0  0  0  0  0  0  0  0  0
  1  2  1  0
  2  3  1  0
  2  4  1  0
  2  5  1  0
  3  6  1  0
  6  7  1  0
  6  8  1  0
  6  9  1  0
 10  7  1  6
 10 11  1  0
 10 12  1  0
 12 13  1  1
 11 14  1  0
 12 15  1  0
 14 15  1  0
 15 16  1  1
M  CHG  2   4  -1   8  -1
M  END
>  <%Rank>  (950) 
72.442748

>  <N_hits>  (950) 
2

>  <submitter_name>  (950) 
nan

>  <original SMILES>  (950) 
nan

>  <∆G_unbound>  (950) 
1.160673

>  <∆G_bound>  (950) 
-6.207947

>  <regarded>  (950) 
5CB5_0_E_β,5CB5_0_E_γ

>  <ref_pdb>  (950) 
nan

>  <smiles>  (950) 
[O-][PH](O)(O)O[PH]([O-])(O)OC1OCC(O)C1O

>  <submitter_email>  (950) 
nan

>  <disregarded>  (950) 


>  <LE>  (950) 
-0.460539

>  <submitter_institution>  (950) 
nan

>  <ref_mols>  (950) 
5CB5_0_E,5CB5_0_E

>  <N_constrained_atoms>  (950) 
16.0

>  <ref_url>  (950) 
nan

>  <method>  (950) 
nan

>  <comRMSD>  (950) 
1.163517

>  <N_unconstrained_atoms>  (950) 
0.0

>  <∆∆G>  (950) 
-7.36862

>  <runtime>  (950) 
29.091073

>  <generation_date>  (950) 
nan

$$$$
mArh-5lw0_B_1_B_β-mArh-3vfq_B_0_A_γ
     RDKit          3D

 16 16  0  0  0  0  0  0  0  0999 V2000
   -1.9320   19.9110   -7.8180 O   0  0  0  0  0  0  0  0  0  0  0  0
   -0.7250   19.0870   -7.2190 P   0  0  0  0  0  0  0  0  0  0  0  0
   -1.2660   18.2770   -5.8890 O   0  0  0  0  0  0  0  0  0  0  0  0
    0.5310   19.8600   -7.1330 O   0  0  0  0  0  0  0  0  0  0  0  0
   -0.4300   18.1240   -8.4360 O   0  0  0  0  0  0  0  0  0  0  0  0
   -2.1010   16.8870   -5.6420 P   0  0  2  0  0  0  0  0  0  0  0  0
   -0.8980   15.8410   -5.4450 O   0  0  0  0  0  0  0  0  0  0  0  0
   -2.9920   16.4810   -6.7460 O   0  0  0  0  0  0  0  0  0  0  0  0
   -2.7580   16.7390   -4.1660 O   0  0  0  0  0  0  0  0  0  0  0  0
   -3.4220   15.5690   -3.5000 C   0  0  2  0  0  0  0  0  0  0  0  0
   -2.9630   15.3310   -2.1460 O   0  0  0  0  0  0  0  0  0  0  0  0
   -3.5060   14.1140   -4.0310 C   0  0  1  0  0  0  0  0  0  0  0  0
   -2.3000   13.3320   -3.9580 O   0  0  0  0  0  0  0  0  0  0  0  0
   -3.7550   14.2140   -1.6750 C   0  0  0  0  0  0  0  0  0  0  0  0
   -4.4190   13.5830   -2.9100 C   0  0  2  0  0  0  0  0  0  0  0  0
   -4.4700   12.1590   -2.8410 O   0  0  0  0  0  0  0  0  0  0  0  0
  1  2  1  0
  2  3  1  0
  2  4  2  0
  2  5  1  0
  3  6  1  0
  6  7  1  1
  6  8  2  0
  6  9  1  0
 10  9  1  6
 10 11  1  0
 10 12  1  0
 12 13  1  1
 11 14  1  0
 12 15  1  0
 14 15  1  0
 15 16  1  1
M  END
>  <%Rank>  (951) 
72.519084

>  <N_hits>  (951) 
2

>  <submitter_name>  (951) 
nan

>  <original SMILES>  (951) 
nan

>  <∆G_unbound>  (951) 
1.860057

>  <∆G_bound>  (951) 
-3.518891

>  <regarded>  (951) 
mArh-5lw0_B_1_B_β,mArh-3vfq_B_0_A_γ

>  <ref_pdb>  (951) 
nan

>  <smiles>  (951) 
O=P(O)(O)OP(=O)(O)OC1OCC(O)C1O

>  <submitter_email>  (951) 
nan

>  <disregarded>  (951) 


>  <LE>  (951) 
-0.336184

>  <submitter_institution>  (951) 
nan

>  <ref_mols>  (951) 
mArh-5lw0_B_1_B,mArh-3vfq_B_0_A

>  <N_constrained_atoms>  (951) 
16.0

>  <ref_url>  (951) 
nan

>  <method>  (951) 
nan

>  <comRMSD>  (951) 
1.104755

>  <N_unconstrained_atoms>  (951) 
0.0

>  <∆∆G>  (951) 
-5.378948

>  <runtime>  (951) 
26.851989

>  <generation_date>  (951) 
nan

$$$$
mArh-x0681_0_A_α-5CB5_0_R_α
     RDKit          3D

 26 28  0  0  0  0  0  0  0  0999 V2000
   -4.3290   13.9210   -3.6540 N   0  0  0  0  0  0  0  0  0  0  0  0
   -3.4700   14.6290   -2.7460 C   0  0  1  0  0  0  0  0  0  0  0  0
   -2.3890   13.8030   -2.4740 O   0  0  0  0  0  0  0  0  0  0  0  0
   -2.8130   15.7980   -3.5180 C   0  0  0  0  0  0  0  0  0  0  0  0
   -4.2440   14.8890   -1.3460 C   0  0  1  0  0  0  0  0  0  0  0  0
   -2.7940   16.2130   -5.0390 C   0  0  0  0  0  0  0  0  0  0  0  0
   -5.1700   13.7300   -1.0200 C   0  0  0  0  0  0  0  0  0  0  0  0
   -3.4720   15.3110   -0.0400 C   0  0  0  0  0  0  0  0  0  0  0  0
   -1.9830   17.5490   -5.3480 C   0  0  0  0  0  0  0  0  0  0  0  0
   -5.7300   13.5830    0.2020 N   0  0  0  0  0  0  0  0  0  0  0  0
   -3.9980   14.7900    1.3140 C   0  0  0  0  0  0  0  0  0  0  0  0
   -5.5660   12.7540   -1.7990 N   0  0  0  0  0  0  0  0  0  0  0  0
   -2.5200   18.6460   -6.3400 C   0  0  0  0  0  0  0  0  0  0  0  0
   -5.4880   14.5100    1.2360 C   0  0  0  0  0  0  0  0  0  0  0  0
   -6.5000   12.4680    0.2330 C   0  0  0  0  0  0  0  0  0  0  0  0
   -6.3860   11.9600   -1.0330 C   0  0  0  0  0  0  0  0  0  0  0  0
   -2.6840   20.1050   -5.7460 C   0  0  0  0  0  0  0  0  0  0  0  0
   -4.0310   20.7050   -5.6450 O   0  0  0  0  0  0  0  0  0  0  0  0
   -4.4530   21.5210   -6.7560 C   0  0  2  0  0  0  0  0  0  0  0  0
   -3.6850   21.0700   -7.8450 O   0  0  0  0  0  0  0  0  0  0  0  0
   -4.2090   23.0390   -6.5730 C   0  0  2  0  0  0  0  0  0  0  0  0
   -5.4220   23.8140   -6.4670 O   0  0  0  0  0  0  0  0  0  0  0  0
   -3.2360   22.1820   -8.5700 C   0  0  2  0  0  0  0  0  0  0  0  0
   -3.5610   23.4710   -7.8740 C   0  0  1  0  0  0  0  0  0  0  0  0
   -4.0750   22.1340   -9.7780 C   0  0  0  0  0  0  0  0  0  0  0  0
   -4.5410   24.1140   -8.7190 O   0  0  0  0  0  0  0  0  0  0  0  0
  2  1  1  6
  2  3  1  0
  2  4  1  0
  2  5  1  0
  4  6  1  0
  5  7  1  0
  5  8  1  1
  6  9  1  0
  7 10  1  0
  8 11  1  0
  7 12  2  0
  9 13  1  0
 10 14  1  0
 11 14  1  0
 10 15  1  0
 12 16  1  0
 15 16  2  0
 13 17  1  0
 17 18  1  0
 19 18  1  1
 19 20  1  0
 19 21  1  0
 21 22  1  6
 20 23  1  0
 21 24  1  0
 23 24  1  0
 23 25  1  6
 24 26  1  6
M  END
>  <%Rank>  (952) 
72.59542

>  <N_hits>  (952) 
2

>  <submitter_name>  (952) 
nan

>  <original SMILES>  (952) 
nan

>  <∆G_unbound>  (952) 
0.549608

>  <∆G_bound>  (952) 
-8.269129

>  <regarded>  (952) 
mArh-x0681_0_A_α,5CB5_0_R_α

>  <ref_pdb>  (952) 
nan

>  <smiles>  (952) 
CC1OC(OCCCCCC(N)(O)C2CCCn3ccnc32)C(O)C1O

>  <submitter_email>  (952) 
nan

>  <disregarded>  (952) 


>  <LE>  (952) 
-0.339182

>  <submitter_institution>  (952) 
nan

>  <ref_mols>  (952) 
mArh-x0681_0_A,5CB5_0_R

>  <N_constrained_atoms>  (952) 
21.0

>  <ref_url>  (952) 
nan

>  <method>  (952) 
nan

>  <comRMSD>  (952) 
1.088964

>  <N_unconstrained_atoms>  (952) 
5.0

>  <∆∆G>  (952) 
-8.818736

>  <runtime>  (952) 
33.747497

>  <generation_date>  (952) 
nan

$$$$
mArh-x0631_0_A_β-mArh-5cb5_F_1_F_α
     RDKit          3D

 27 28  0  0  0  0  0  0  0  0999 V2000
   -0.1680    8.9340   -6.5940 C   0  0  0  0  0  0  0  0  0  0  0  0
   -1.2700    8.2750   -7.4310 C   0  0  0  0  0  0  0  0  0  0  0  0
   -2.4580    9.2070   -7.6050 C   0  0  0  0  0  0  0  0  0  0  0  0
    0.8120    9.6800   -7.4200 N   0  0  0  0  0  0  0  0  0  0  0  0
    0.3890    9.9070   -8.7570 N   0  0  0  0  0  0  0  0  0  0  0  0
    1.1230   10.9630   -6.8520 N   0  0  0  0  0  0  0  0  0  0  0  0
   -0.0900   11.2980   -8.7580 C   0  0  0  0  0  0  0  0  0  0  0  0
    0.3720   11.9710   -7.5190 N   0  0  0  0  0  0  0  0  0  0  0  0
   -0.6560   12.5420   -6.5700 C   0  0  0  0  0  0  0  0  0  0  0  0
   -0.1830   13.7840   -5.7050 C   0  0  0  0  0  0  0  0  0  0  0  0
   -1.3680   14.7370   -5.2920 C   0  0  0  0  0  0  0  0  0  0  0  0
   -1.0960   16.2180   -4.8000 C   0  0  0  0  0  0  0  0  0  0  0  0
   -0.4810   17.3480   -5.7010 C   0  0  0  0  0  0  0  0  0  0  0  0
   -1.5080   18.3530   -6.3370 C   0  0  0  0  0  0  0  0  0  0  0  0
   -0.9590   19.3580   -7.4140 C   0  0  0  0  0  0  0  0  0  0  0  0
   -1.4310   20.8490   -7.4610 C   0  0  0  0  0  0  0  0  0  0  0  0
   -2.5950   21.2680   -8.3940 C   0  0  2  0  0  0  0  0  0  0  0  0
   -2.9940   22.7200   -8.4530 C   0  0  1  0  0  0  0  0  0  0  0  0
   -3.8010   20.6360   -7.8950 O   0  0  0  0  0  0  0  0  0  0  0  0
   -3.7920   23.0480   -9.6000 O   0  0  0  0  0  0  0  0  0  0  0  0
   -3.8700   22.8940   -7.2750 C   0  0  2  0  0  0  0  0  0  0  0  0
   -4.3040   21.4760   -6.8780 C   0  0  1  0  0  0  0  0  0  0  0  0
   -4.8750   23.5890   -7.9570 O   0  0  0  0  0  0  0  0  0  0  0  0
   -5.7040   21.2840   -6.7350 O   0  0  0  0  0  0  0  0  0  0  0  0
   -5.5520   24.3590   -7.1790 C   0  0  0  0  0  0  0  0  0  0  0  0
   -4.6450   25.1850   -6.3020 C   0  0  0  0  0  0  0  0  0  0  0  0
   -6.7280   24.3270   -7.2370 O   0  0  0  0  0  0  0  0  0  0  0  0
  1  2  1  0
  2  3  1  0
  1  4  1  0
  4  5  1  0
  4  6  1  0
  5  7  1  0
  6  8  1  0
  7  8  1  0
  8  9  1  0
  9 10  1  0
 10 11  1  0
 11 12  1  0
 12 13  1  0
 13 14  1  0
 14 15  1  0
 15 16  1  0
 17 16  1  1
 17 18  1  0
 17 19  1  0
 18 20  1  6
 18 21  1  0
 19 22  1  0
 21 22  1  0
 21 23  1  6
 22 24  1  6
 23 25  1  0
 25 26  1  0
 25 27  2  0
M  END
>  <%Rank>  (953) 
72.671756

>  <N_hits>  (953) 
2

>  <submitter_name>  (953) 
nan

>  <original SMILES>  (953) 
nan

>  <∆G_unbound>  (953) 
0.790359

>  <∆G_bound>  (953) 
-6.336798

>  <regarded>  (953) 
mArh-x0631_0_A_β,mArh-5cb5_F_1_F_α

>  <ref_pdb>  (953) 
nan

>  <smiles>  (953) 
CCCN1NCN(CCCCCCCCC2OC(O)C(OC(C)=O)C2O)N1

>  <submitter_email>  (953) 
nan

>  <disregarded>  (953) 


>  <LE>  (953) 
-0.263969

>  <submitter_institution>  (953) 
nan

>  <ref_mols>  (953) 
mArh-x0631_0_A,mArh-5cb5_F_1_F

>  <N_constrained_atoms>  (953) 
20.0

>  <ref_url>  (953) 
nan

>  <method>  (953) 
nan

>  <comRMSD>  (953) 
0.977822

>  <N_unconstrained_atoms>  (953) 
7.0

>  <∆∆G>  (953) 
-7.127156

>  <runtime>  (953) 
85.157993

>  <generation_date>  (953) 
nan

$$$$
mArh-EU0238_0_A_α-3EW5_0_C_α
     RDKit          3D

 26 26  0  0  0  0  0  0  0  0999 V2000
   -5.5360   12.5230    0.3580 C   0  0  0  0  0  0  0  0  0  0  0  0
   -6.9430   12.7740    0.3630 N   0  0  0  0  0  0  0  0  0  0  0  0
   -4.7710   13.7160   -0.1370 C   0  0  0  0  0  0  0  0  0  0  0  0
   -4.8880   14.0250   -1.4050 N   0  0  0  0  0  0  0  0  0  0  0  0
   -4.0060   14.4050    0.8710 N   0  0  0  0  0  0  0  0  0  0  0  0
   -4.2930   15.1140   -2.0800 C   0  0  0  0  0  0  0  0  0  0  0  0
   -2.5470   14.4860    0.7650 C   0  0  0  0  0  0  0  0  0  0  0  0
   -3.8460   14.8020   -3.5170 C   0  0  0  0  0  0  0  0  0  0  0  0
   -1.5250   14.7080   -0.5850 S   0  0  0  0  0  0  0  0  0  0  0  0
   -1.6640   14.4140    1.7610 N   0  0  0  0  0  0  0  0  0  0  0  0
   -2.6490   15.5480   -3.8680 C   0  0  0  0  0  0  0  0  0  0  0  0
   -0.3950   14.5130    1.5220 C   0  0  0  0  0  0  0  0  0  0  0  0
   -0.0060   14.6860    0.2180 C   0  0  0  0  0  0  0  0  0  0  0  0
   -2.6050   16.2150   -5.2380 C   0  0  0  0  0  0  0  0  0  0  0  0
   -1.9770   17.6050   -5.0880 C   0  0  0  0  0  0  0  0  0  0  0  0
   -1.2770   18.0530   -6.3660 C   0  0  0  0  0  0  0  0  0  0  0  0
   -0.7090   19.2710   -6.1590 O   0  0  0  0  0  0  0  0  0  0  0  0
   -0.0100   19.8470   -7.5580 P   0  0  0  0  0  0  0  0  0  0  0  0
   -1.3810   20.3320   -8.0170 O   0  0  0  0  0  0  0  0  0  0  0  0
    0.7170   21.2980   -7.6160 O   0  0  0  0  0  0  0  0  0  0  0  0
    0.1160   18.8140   -8.8380 O   0  0  0  0  0  0  0  0  0  0  0  0
   -1.6080   21.7090   -7.8290 C   0  0  0  0  0  0  0  0  0  0  0  0
   -2.9740   21.9640   -8.3580 C   0  0  2  0  0  0  0  0  0  0  0  0
   -3.3600   23.4070   -8.4340 C   0  0  0  0  0  0  0  0  0  0  0  0
   -3.9730   21.2830   -7.6740 O   0  0  0  0  0  0  0  0  0  0  0  0
   -4.1260   23.5490   -9.6120 O   0  0  0  0  0  0  0  0  0  0  0  0
  1  2  1  0
  1  3  1  0
  3  4  2  3
  3  5  1  0
  4  6  1  0
  5  7  1  0
  6  8  1  0
  7  9  1  0
  7 10  2  0
  8 11  1  0
 10 12  1  0
  9 13  1  0
 12 13  2  0
 11 14  1  0
 14 15  1  0
 15 16  1  0
 16 17  1  0
 17 18  1  0
 18 19  1  0
 18 20  1  0
 18 21  1  0
 19 22  1  0
 22 23  1  0
 23 24  1  0
 23 25  1  1
 24 26  1  0
M  CHG  1  21  -1
M  END
>  <%Rank>  (954) 
72.748092

>  <N_hits>  (954) 
2

>  <submitter_name>  (954) 
nan

>  <original SMILES>  (954) 
nan

>  <∆G_unbound>  (954) 
0.593948

>  <∆G_bound>  (954) 
-12.445151

>  <regarded>  (954) 
mArh-EU0238_0_A_α,3EW5_0_C_α

>  <ref_pdb>  (954) 
nan

>  <smiles>  (954) 
NCC(=NCCCCCCO[PH]([O-])(O)OC[C@@H](O)CO)Nc1nccs1

>  <submitter_email>  (954) 
nan

>  <disregarded>  (954) 


>  <LE>  (954) 
-0.501504

>  <submitter_institution>  (954) 
nan

>  <ref_mols>  (954) 
mArh-EU0238_0_A,3EW5_0_C

>  <N_constrained_atoms>  (954) 
20.0

>  <ref_url>  (954) 
nan

>  <method>  (954) 
nan

>  <comRMSD>  (954) 
1.126517

>  <N_unconstrained_atoms>  (954) 
6.0

>  <∆∆G>  (954) 
-13.039099

>  <runtime>  (954) 
29.833182

>  <generation_date>  (954) 
nan

$$$$
mArh-5cms_N_13_N_α-mArh-5cms_R_17_R_β
     RDKit          3D

 17 17  0  0  0  0  0  0  0  0999 V2000
   -1.7480   21.2630   -8.9970 C   0  0  0  0  0  0  0  0  0  0  0  0
   -0.8470   20.1360   -7.8990 P   0  0  2  0  0  0  0  0  0  0  0  0
   -1.7430   19.6650   -6.6820 O   0  0  0  0  0  0  0  0  0  0  0  0
   -3.2190   21.6800   -8.9420 C   0  0  1  0  0  0  0  0  0  0  0  0
    0.5330   20.5790   -7.5240 O   0  0  0  0  0  0  0  0  0  0  0  0
   -0.6860   18.7540   -8.7110 O   0  0  0  0  0  0  0  0  0  0  0  0
   -3.4540   22.7880   -8.0800 O   0  0  0  0  0  0  0  0  0  0  0  0
   -3.9370   22.1780  -10.2560 C   0  0  2  0  0  0  0  0  0  0  0  0
   -3.4450   21.8300  -11.5220 O   0  0  0  0  0  0  0  0  0  0  0  0
   -1.7760   18.1650   -6.1600 P   0  0  0  0  0  0  0  0  0  0  0  0
   -4.5580   23.4370   -8.7220 C   0  0  2  0  0  0  0  0  0  0  0  0
   -4.0070   23.6400  -10.1100 C   0  0  2  0  0  0  0  0  0  0  0  0
   -4.9460   24.5920   -8.0740 O   0  0  0  0  0  0  0  0  0  0  0  0
   -4.9170   24.1940  -11.0780 O   0  0  0  0  0  0  0  0  0  0  0  0
   -0.3010   17.5920   -6.3000 O   0  0  0  0  0  0  0  0  0  0  0  0
   -2.7890   17.2720   -6.7430 O   0  0  0  0  0  0  0  0  0  0  0  0
   -1.8550   18.3020   -4.5890 O   0  0  0  0  0  0  0  0  0  0  0  0
  1  2  1  0
  2  3  1  0
  4  1  1  6
  2  5  2  0
  2  6  1  6
  4  7  1  0
  4  8  1  0
  8  9  1  6
  3 10  1  0
  7 11  1  0
  8 12  1  0
 11 12  1  0
 11 13  1  1
 12 14  1  6
 10 15  1  0
 10 16  2  0
 10 17  1  0
M  END
>  <%Rank>  (955) 
72.824427

>  <N_hits>  (955) 
2

>  <submitter_name>  (955) 
nan

>  <original SMILES>  (955) 
nan

>  <∆G_unbound>  (955) 
1.703844

>  <∆G_bound>  (955) 
-6.459199

>  <regarded>  (955) 
mArh-5cms_N_13_N_α,mArh-5cms_R_17_R_β

>  <ref_pdb>  (955) 
nan

>  <smiles>  (955) 
O=P(O)(O)OP(=O)(O)CC1OC(O)C(O)C1O

>  <submitter_email>  (955) 
nan

>  <disregarded>  (955) 


>  <LE>  (955) 
-0.480179

>  <submitter_institution>  (955) 
nan

>  <ref_mols>  (955) 
mArh-5cms_N_13_N,mArh-5cms_R_17_R

>  <N_constrained_atoms>  (955) 
17.0

>  <ref_url>  (955) 
nan

>  <method>  (955) 
nan

>  <comRMSD>  (955) 
1.205872

>  <N_unconstrained_atoms>  (955) 
0.0

>  <∆∆G>  (955) 
-8.163043

>  <runtime>  (955) 
33.28649

>  <generation_date>  (955) 
nan

$$$$
2FAV_0_B_β-5L9K_0_A_β
     RDKit          3D

 11 10  0  0  0  0  0  0  0  0999 V2000
   -1.1090   21.1260   -7.9110 O   0  0  0  0  0  0  0  0  0  0  0  0
   -0.2510   19.7470   -7.5590 P   0  0  0  0  0  0  0  0  0  0  0  0
   -0.2020   19.1280   -6.1050 O   0  0  0  0  0  0  0  0  0  0  0  0
   -2.2970   20.7900   -8.2560 O   0  0  0  0  0  0  0  0  0  0  0  0
    1.0180   20.6040   -7.5120 O   0  0  0  0  0  0  0  0  0  0  0  0
    0.3060   18.7970   -8.8020 O   0  0  0  0  0  0  0  0  0  0  0  0
   -1.1750   17.9890   -5.7990 P   0  0  0  0  0  0  0  0  0  0  0  0
   -0.0880   16.9270   -5.2260 O   0  0  0  0  0  0  0  0  0  0  0  0
   -1.9000   19.0350   -4.7420 O   0  0  0  0  0  0  0  0  0  0  0  0
   -2.3660   17.0550   -5.6340 O   0  0  0  0  0  0  0  0  0  0  0  0
   -3.1340   17.0130   -6.6610 O   0  0  0  0  0  0  0  0  0  0  0  0
  1  2  1  0
  2  3  1  0
  1  4  1  0
  2  5  1  0
  2  6  1  0
  3  7  1  0
  7  8  1  0
  7  9  1  0
  7 10  1  0
 10 11  1  0
M  CHG  2   5  -1   9  -1
M  END
>  <%Rank>  (956) 
72.900763

>  <N_hits>  (956) 
2

>  <submitter_name>  (956) 
nan

>  <original SMILES>  (956) 
nan

>  <∆G_unbound>  (956) 
0.807349

>  <∆G_bound>  (956) 
-5.031629

>  <regarded>  (956) 
2FAV_0_B_β,5L9K_0_A_β

>  <ref_pdb>  (956) 
nan

>  <smiles>  (956) 
[O-][PH](O)(OO)O[PH]([O-])(O)OO

>  <submitter_email>  (956) 
nan

>  <disregarded>  (956) 


>  <LE>  (956) 
-0.530816

>  <submitter_institution>  (956) 
nan

>  <ref_mols>  (956) 
2FAV_0_B,5L9K_0_A

>  <N_constrained_atoms>  (956) 
11.0

>  <ref_url>  (956) 
nan

>  <method>  (956) 
nan

>  <comRMSD>  (956) 
1.07434

>  <N_unconstrained_atoms>  (956) 
0.0

>  <∆∆G>  (956) 
-5.838978

>  <runtime>  (956) 
24.979567

>  <generation_date>  (956) 
nan

$$$$
5L9K_0_A_β-mArh-5cb5_Q_0_Q_α
     RDKit          3D

 17 17  0  0  0  0  0  0  0  0999 V2000
   -2.3720   21.2310   -7.1720 O   0  0  0  0  0  0  0  0  0  0  0  0
   -1.3160   19.8830   -7.3520 P   0  0  0  0  0  0  0  0  0  0  0  0
   -1.8770   18.3820   -7.1770 O   0  0  0  0  0  0  0  0  0  0  0  0
   -3.5060   21.1510   -7.9340 N   0  0  0  0  0  0  0  0  0  0  0  0
    0.3120   20.0510   -7.4960 O   0  0  0  0  0  0  0  0  0  0  0  0
   -1.3180   20.0040   -8.8540 O   0  0  0  0  0  0  0  0  0  0  0  0
   -3.3680   22.0180   -9.0780 C   0  0  0  0  0  0  0  0  0  0  0  0
   -4.7330   21.7250   -7.2870 C   0  0  1  0  0  0  0  0  0  0  0  0
   -2.1020   17.6330   -5.8800 P   0  0  0  0  0  0  0  0  0  0  0  0
   -4.9390   21.2040   -6.0100 O   0  0  0  0  0  0  0  0  0  0  0  0
   -4.3670   23.1790   -7.2390 C   0  0  1  0  0  0  0  0  0  0  0  0
   -3.7650   23.4160   -8.6190 C   0  0  2  0  0  0  0  0  0  0  0  0
   -0.6550   16.8790   -5.8440 O   0  0  0  0  0  0  0  0  0  0  0  0
   -2.2950   19.0240   -5.0430 O   0  0  0  0  0  0  0  0  0  0  0  0
   -3.3830   16.8020   -6.5260 O   0  0  0  0  0  0  0  0  0  0  0  0
   -4.7130   23.9670   -9.4870 O   0  0  0  0  0  0  0  0  0  0  0  0
   -5.4760   23.9810   -7.0030 O   0  0  0  0  0  0  0  0  0  0  0  0
  1  2  1  0
  2  3  1  0
  1  4  1  0
  2  5  1  0
  2  6  1  0
  4  7  1  0
  4  8  1  0
  3  9  1  0
  8 10  1  1
  8 11  1  0
  7 12  1  0
 11 12  1  0
  9 13  1  0
  9 14  1  0
  9 15  1  0
 12 16  1  6
 11 17  1  6
M  CHG  2   5  -1  14  -1
M  END
>  <%Rank>  (957) 
72.977099

>  <N_hits>  (957) 
2

>  <submitter_name>  (957) 
nan

>  <original SMILES>  (957) 
nan

>  <∆G_unbound>  (957) 
2.25323

>  <∆G_bound>  (957) 
-6.27383

>  <regarded>  (957) 
5L9K_0_A_β,mArh-5cb5_Q_0_Q_α

>  <ref_pdb>  (957) 
nan

>  <smiles>  (957) 
[O-][PH](O)(O)O[PH]([O-])(O)ON1CC(O)C(O)C1O

>  <submitter_email>  (957) 
nan

>  <disregarded>  (957) 


>  <LE>  (957) 
-0.501592

>  <submitter_institution>  (957) 
nan

>  <ref_mols>  (957) 
5L9K_0_A,mArh-5cb5_Q_0_Q

>  <N_constrained_atoms>  (957) 
17.0

>  <ref_url>  (957) 
nan

>  <method>  (957) 
nan

>  <comRMSD>  (957) 
1.217506

>  <N_unconstrained_atoms>  (957) 
0.0

>  <∆∆G>  (957) 
-8.52706

>  <runtime>  (957) 
33.709134

>  <generation_date>  (957) 
nan

$$$$
5CB5_0_N_β-mArh-5cms_L_11_L_γ
     RDKit          3D

 16 16  0  0  0  0  0  0  0  0999 V2000
   -1.5860   20.2710   -8.3780 O   0  0  0  0  0  0  0  0  0  0  0  0
   -0.2210   19.7700   -7.5890 P   0  0  0  0  0  0  0  0  0  0  0  0
   -0.2310   18.3920   -6.6590 O   0  0  0  0  0  0  0  0  0  0  0  0
    0.1930   18.8990   -8.7510 O   0  0  0  0  0  0  0  0  0  0  0  0
    1.0430   20.7150   -7.6470 O   0  0  0  0  0  0  0  0  0  0  0  0
   -1.6530   18.1380   -5.9800 P   0  0  0  0  0  0  0  0  0  0  0  0
   -1.2890   16.8070   -5.2020 O   0  0  0  0  0  0  0  0  0  0  0  0
   -2.8170   17.2020   -6.7430 O   0  0  0  0  0  0  0  0  0  0  0  0
   -2.0720   19.0130   -4.6900 O   0  0  0  0  0  0  0  0  0  0  0  0
   -0.0610   16.1160   -5.0530 C   0  0  1  0  0  0  0  0  0  0  0  0
    0.3930   16.2430   -3.7320 O   0  0  0  0  0  0  0  0  0  0  0  0
   -0.0910   14.6290   -5.3230 C   0  0  1  0  0  0  0  0  0  0  0  0
    0.8950   14.1610   -6.2000 O   0  0  0  0  0  0  0  0  0  0  0  0
   -0.0840   15.0990   -3.0650 C   0  0  0  0  0  0  0  0  0  0  0  0
    0.4230   14.0330   -4.0210 C   0  0  1  0  0  0  0  0  0  0  0  0
   -0.1250   12.7860   -3.8530 O   0  0  0  0  0  0  0  0  0  0  0  0
  1  2  1  0
  2  3  1  0
  2  4  1  0
  2  5  1  0
  3  6  1  0
  6  7  1  0
  6  8  1  0
  6  9  1  0
 10  7  1  1
 10 11  1  0
 10 12  1  0
 12 13  1  6
 11 14  1  0
 12 15  1  0
 14 15  1  0
 15 16  1  1
M  CHG  2   4  -1   8  -1
M  END
>  <%Rank>  (958) 
73.053435

>  <N_hits>  (958) 
2

>  <submitter_name>  (958) 
nan

>  <original SMILES>  (958) 
nan

>  <∆G_unbound>  (958) 
1.160673

>  <∆G_bound>  (958) 
-6.987232

>  <regarded>  (958) 
5CB5_0_N_β,mArh-5cms_L_11_L_γ

>  <ref_pdb>  (958) 
nan

>  <smiles>  (958) 
[O-][PH](O)(O)O[PH]([O-])(O)OC1OCC(O)C1O

>  <submitter_email>  (958) 
nan

>  <disregarded>  (958) 


>  <LE>  (958) 
-0.509244

>  <submitter_institution>  (958) 
nan

>  <ref_mols>  (958) 
5CB5_0_N,mArh-5cms_L_11_L

>  <N_constrained_atoms>  (958) 
16.0

>  <ref_url>  (958) 
nan

>  <method>  (958) 
nan

>  <comRMSD>  (958) 
1.203343

>  <N_unconstrained_atoms>  (958) 
0.0

>  <∆∆G>  (958) 
-8.147906

>  <runtime>  (958) 
34.284157

>  <generation_date>  (958) 
nan

$$$$
5CB5_0_O_β-5CMS_0_K_γ
     RDKit          3D

 16 16  0  0  0  0  0  0  0  0999 V2000
   -1.5630   20.2170   -8.3420 O   0  0  0  0  0  0  0  0  0  0  0  0
   -0.1760   19.7250   -7.5870 P   0  0  0  0  0  0  0  0  0  0  0  0
   -0.1250   18.3170   -6.6990 O   0  0  0  0  0  0  0  0  0  0  0  0
    0.2380   18.9000   -8.7720 O   0  0  0  0  0  0  0  0  0  0  0  0
    1.0630   20.7040   -7.6380 O   0  0  0  0  0  0  0  0  0  0  0  0
   -1.5060   18.0110   -5.9620 P   0  0  0  0  0  0  0  0  0  0  0  0
   -1.1850   16.5460   -5.4530 O   0  0  0  0  0  0  0  0  0  0  0  0
   -2.7560   17.2650   -6.7910 O   0  0  0  0  0  0  0  0  0  0  0  0
   -1.8030   18.6490   -4.5170 O   0  0  0  0  0  0  0  0  0  0  0  0
   -0.0190   15.9120   -4.9660 C   0  0  1  0  0  0  0  0  0  0  0  0
    0.0280   15.9420   -3.5720 O   0  0  0  0  0  0  0  0  0  0  0  0
    0.1150   14.4500   -5.2790 C   0  0  1  0  0  0  0  0  0  0  0  0
    1.4430   13.9740   -5.3010 O   0  0  0  0  0  0  0  0  0  0  0  0
   -0.9020   14.9670   -3.1880 C   0  0  0  0  0  0  0  0  0  0  0  0
   -0.4710   13.7690   -4.0410 C   0  0  1  0  0  0  0  0  0  0  0  0
   -1.5060   12.9760   -4.4510 O   0  0  0  0  0  0  0  0  0  0  0  0
  1  2  1  0
  2  3  1  0
  2  4  1  0
  2  5  1  0
  3  6  1  0
  6  7  1  0
  6  8  1  0
  6  9  1  0
 10  7  1  1
 10 11  1  0
 10 12  1  0
 12 13  1  1
 11 14  1  0
 12 15  1  0
 14 15  1  0
 15 16  1  6
M  CHG  2   4  -1   8  -1
M  END
>  <%Rank>  (959) 
73.129771

>  <N_hits>  (959) 
2

>  <submitter_name>  (959) 
nan

>  <original SMILES>  (959) 
nan

>  <∆G_unbound>  (959) 
1.160673

>  <∆G_bound>  (959) 
-7.129962

>  <regarded>  (959) 
5CB5_0_O_β,5CMS_0_K_γ

>  <ref_pdb>  (959) 
nan

>  <smiles>  (959) 
[O-][PH](O)(O)O[PH]([O-])(O)OC1OCC(O)C1O

>  <submitter_email>  (959) 
nan

>  <disregarded>  (959) 


>  <LE>  (959) 
-0.518165

>  <submitter_institution>  (959) 
nan

>  <ref_mols>  (959) 
5CB5_0_O,5CMS_0_K

>  <N_constrained_atoms>  (959) 
16.0

>  <ref_url>  (959) 
nan

>  <method>  (959) 
nan

>  <comRMSD>  (959) 
1.207914

>  <N_unconstrained_atoms>  (959) 
0.0

>  <∆∆G>  (959) 
-8.290636

>  <runtime>  (959) 
25.109098

>  <generation_date>  (959) 
nan

$$$$
3GQE_0_A_α-mArh-5cb5_H_0_H_α
     RDKit          3D

 18 18  0  0  0  0  0  0  0  0999 V2000
   -2.3860   18.2650   -6.5000 C   0  0  0  0  0  0  0  0  0  0  0  0
   -2.3090   19.7180   -6.7930 N   0  0  0  0  0  0  0  0  0  0  0  0
   -2.9460   20.6710   -5.8590 C   0  0  0  0  0  0  0  0  0  0  0  0
   -1.9810   17.6970   -5.1300 C   0  0  0  0  0  0  0  0  0  0  0  0
   -0.9470   20.1410   -7.0290 C   0  0  0  0  0  0  0  0  0  0  0  0
   -2.9410   16.8510   -4.5240 O   0  0  0  0  0  0  0  0  0  0  0  0
   -1.7670   18.7490   -4.2570 O   0  0  0  0  0  0  0  0  0  0  0  0
   -3.7640   21.8010   -6.5730 C   0  0  1  0  0  0  0  0  0  0  0  0
   -0.4820   19.9350   -8.4480 C   0  0  0  0  0  0  0  0  0  0  0  0
   -2.9340   22.8800   -6.9270 O   0  0  0  0  0  0  0  0  0  0  0  0
   -0.3050   18.5540   -8.7370 O   0  0  0  0  0  0  0  0  0  0  0  0
   -4.3670   21.4350   -7.8300 N   0  0  0  0  0  0  0  0  0  0  0  0
   -3.7040   22.1730   -8.9010 C   0  0  0  0  0  0  0  0  0  0  0  0
   -5.7160   21.9960   -7.8440 C   0  0  0  0  0  0  0  0  0  0  0  0
   -5.5160   23.4930   -7.9470 C   0  0  2  0  0  0  0  0  0  0  0  0
   -4.1960   23.6070   -8.7290 C   0  0  2  0  0  0  0  0  0  0  0  0
   -4.5110   24.2350   -9.9490 O   0  0  0  0  0  0  0  0  0  0  0  0
   -5.4900   24.1250   -6.6580 O   0  0  0  0  0  0  0  0  0  0  0  0
  1  2  1  0
  2  3  1  0
  1  4  1  0
  2  5  1  0
  4  6  1  0
  4  7  1  0
  3  8  1  0
  5  9  1  0
  8 10  1  6
  9 11  1  0
  8 12  1  0
 12 13  1  0
 12 14  1  0
 14 15  1  0
 13 16  1  0
 15 16  1  0
 16 17  1  6
 15 18  1  1
M  END
>  <%Rank>  (960) 
73.206107

>  <N_hits>  (960) 
2

>  <submitter_name>  (960) 
nan

>  <original SMILES>  (960) 
nan

>  <∆G_unbound>  (960) 
0.8378

>  <∆G_bound>  (960) 
-9.74019

>  <regarded>  (960) 
3GQE_0_A_α,mArh-5cb5_H_0_H_α

>  <ref_pdb>  (960) 
nan

>  <smiles>  (960) 
OCCN(CC(O)O)CC(O)N1CC(O)C(O)C1

>  <submitter_email>  (960) 
nan

>  <disregarded>  (960) 


>  <LE>  (960) 
-0.587666

>  <submitter_institution>  (960) 
nan

>  <ref_mols>  (960) 
3GQE_0_A,mArh-5cb5_H_0_H

>  <N_constrained_atoms>  (960) 
18.0

>  <ref_url>  (960) 
nan

>  <method>  (960) 
nan

>  <comRMSD>  (960) 
1.288309

>  <N_unconstrained_atoms>  (960) 
0.0

>  <∆∆G>  (960) 
-10.57799

>  <runtime>  (960) 
43.028835

>  <generation_date>  (960) 
nan

$$$$
mArh-5cms_L_11_L_α-5CMS_0_A_γ
     RDKit          3D

 23 24  0  0  0  0  0  0  0  0999 V2000
   -1.2140   21.3770   -7.7830 C   0  0  0  0  0  0  0  0  0  0  0  0
   -2.0420   22.0380   -8.8600 C   0  0  1  0  0  0  0  0  0  0  0  0
   -3.2900   21.3630   -9.0870 O   0  0  0  0  0  0  0  0  0  0  0  0
   -2.3980   23.4740   -8.5620 C   0  0  1  0  0  0  0  0  0  0  0  0
   -1.3790   24.3710   -8.9060 O   0  0  0  0  0  0  0  0  0  0  0  0
   -4.3340   22.3290   -9.2230 C   0  0  2  0  0  0  0  0  0  0  0  0
   -3.6850   23.6710   -9.3570 C   0  0  2  0  0  0  0  0  0  0  0  0
   -5.1280   22.4620   -8.0450 O   0  0  0  0  0  0  0  0  0  0  0  0
   -3.6480   24.2250  -10.6700 O   0  0  0  0  0  0  0  0  0  0  0  0
   -5.1730   21.2960   -7.2240 C   0  0  0  0  0  0  0  0  0  0  0  0
   -3.9330   21.1700   -6.3310 C   0  0  0  0  0  0  0  0  0  0  0  0
   -3.0540   19.9590   -6.6910 C   0  0  0  0  0  0  0  0  0  0  0  0
   -1.9730   19.5890   -5.6680 C   0  0  0  0  0  0  0  0  0  0  0  0
   -1.5640   18.1010   -5.6900 C   0  0  0  0  0  0  0  0  0  0  0  0
   -0.0500   17.8690   -5.9030 C   0  0  0  0  0  0  0  0  0  0  0  0
    0.6250   16.6390   -5.2550 C   0  0  0  0  0  0  0  0  0  0  0  0
   -0.2550   15.4950   -4.7460 C   0  0  2  0  0  0  0  0  0  0  0  0
   -0.2870   15.4620   -3.3090 O   0  0  0  0  0  0  0  0  0  0  0  0
    0.0250   14.0520   -5.1530 C   0  0  1  0  0  0  0  0  0  0  0  0
    1.3610   13.5880   -4.9530 O   0  0  0  0  0  0  0  0  0  0  0  0
   -0.7940   14.1750   -2.9340 C   0  0  0  0  0  0  0  0  0  0  0  0
   -0.9560   13.3650   -4.2220 C   0  0  2  0  0  0  0  0  0  0  0  0
   -0.6720   11.9870   -4.0770 O   0  0  0  0  0  0  0  0  0  0  0  0
  2  1  1  1
  2  3  1  0
  2  4  1  0
  4  5  1  6
  3  6  1  0
  4  7  1  0
  6  7  1  0
  6  8  1  1
  7  9  1  6
  8 10  1  0
 10 11  1  0
 11 12  1  0
 12 13  1  0
 13 14  1  0
 14 15  1  0
 15 16  1  0
 17 16  1  1
 17 18  1  0
 17 19  1  0
 19 20  1  1
 18 21  1  0
 19 22  1  0
 21 22  1  0
 22 23  1  1
M  END
>  <%Rank>  (961) 
73.282443

>  <N_hits>  (961) 
2

>  <submitter_name>  (961) 
nan

>  <original SMILES>  (961) 
nan

>  <∆G_unbound>  (961) 
1.293032

>  <∆G_bound>  (961) 
-7.376032

>  <regarded>  (961) 
mArh-5cms_L_11_L_α,5CMS_0_A_γ

>  <ref_pdb>  (961) 
nan

>  <smiles>  (961) 
CC1OC(OCCCCCCCC2OCC(O)C2O)C(O)C1O

>  <submitter_email>  (961) 
nan

>  <disregarded>  (961) 


>  <LE>  (961) 
-0.376916

>  <submitter_institution>  (961) 
nan

>  <ref_mols>  (961) 
mArh-5cms_L_11_L,5CMS_0_A

>  <N_constrained_atoms>  (961) 
17.0

>  <ref_url>  (961) 
nan

>  <method>  (961) 
nan

>  <comRMSD>  (961) 
0.988015

>  <N_unconstrained_atoms>  (961) 
6.0

>  <∆∆G>  (961) 
-8.669064

>  <runtime>  (961) 
48.130081

>  <generation_date>  (961) 
nan

$$$$
5CB5_0_P_α-6WOJ_0_B_β
     RDKit          3D

 17 17  0  0  0  0  0  0  0  0999 V2000
   -1.8520   21.3820   -8.7080 C   0  0  0  0  0  0  0  0  0  0  0  0
   -0.9110   20.6520   -7.4130 P   0  0  0  0  0  0  0  0  0  0  0  0
   -1.2150   19.1540   -7.5470 O   0  0  0  0  0  0  0  0  0  0  0  0
   -3.3240   21.8050   -8.5630 C   0  0  1  0  0  0  0  0  0  0  0  0
    0.6770   20.3640   -7.5730 O   0  0  0  0  0  0  0  0  0  0  0  0
   -1.6400   20.3840   -5.9320 O   0  0  0  0  0  0  0  0  0  0  0  0
   -3.9490   21.1460   -7.5320 O   0  0  0  0  0  0  0  0  0  0  0  0
   -3.5270   23.3100   -8.2750 C   0  0  1  0  0  0  0  0  0  0  0  0
   -4.3190   23.9020   -9.2530 O   0  0  0  0  0  0  0  0  0  0  0  0
   -1.4830   18.0280   -6.3080 P   0  0  0  0  0  0  0  0  0  0  0  0
   -4.9590   21.9410   -7.0860 C   0  0  2  0  0  0  0  0  0  0  0  0
   -4.3810   23.3030   -7.0120 C   0  0  2  0  0  0  0  0  0  0  0  0
   -5.4240   21.5950   -5.8280 O   0  0  0  0  0  0  0  0  0  0  0  0
   -5.3940   24.2710   -7.1720 O   0  0  0  0  0  0  0  0  0  0  0  0
   -0.2170   17.4400   -5.3720 O   0  0  0  0  0  0  0  0  0  0  0  0
   -1.8050   18.9960   -5.1560 O   0  0  0  0  0  0  0  0  0  0  0  0
   -2.8550   17.2040   -6.2740 O   0  0  0  0  0  0  0  0  0  0  0  0
  1  2  1  0
  2  3  1  0
  4  1  1  1
  2  5  1  0
  2  6  1  0
  4  7  1  0
  4  8  1  0
  8  9  1  6
  3 10  1  0
  7 11  1  0
  8 12  1  0
 11 12  1  0
 11 13  1  1
 12 14  1  6
 10 15  1  0
 10 16  1  0
 10 17  1  0
M  CHG  2   5  -1  16  -1
M  END
>  <%Rank>  (962) 
73.358779

>  <N_hits>  (962) 
2

>  <submitter_name>  (962) 
nan

>  <original SMILES>  (962) 
nan

>  <∆G_unbound>  (962) 
1.818629

>  <∆G_bound>  (962) 
-6.440744

>  <regarded>  (962) 
5CB5_0_P_α,6WOJ_0_B_β

>  <ref_pdb>  (962) 
nan

>  <smiles>  (962) 
[O-][PH](O)(O)O[PH]([O-])(O)CC1OC(O)C(O)C1O

>  <submitter_email>  (962) 
nan

>  <disregarded>  (962) 


>  <LE>  (962) 
-0.485845

>  <submitter_institution>  (962) 
nan

>  <ref_mols>  (962) 
5CB5_0_P,6WOJ_0_B

>  <N_constrained_atoms>  (962) 
17.0

>  <ref_url>  (962) 
nan

>  <method>  (962) 
nan

>  <comRMSD>  (962) 
1.219227

>  <N_unconstrained_atoms>  (962) 
0.0

>  <∆∆G>  (962) 
-8.259373

>  <runtime>  (962) 
38.213404

>  <generation_date>  (962) 
nan

$$$$
mArh-x0436_0_B_α-mArh-5cms_J_9_J_α
     RDKit          3D

 25 26  0  0  0  0  0  0  0  0999 V2000
  -10.3610   28.2680  -15.8240 N   0  0  0  0  0  0  0  0  0  0  0  0
  -10.0880   29.6100  -15.7300 C   0  0  0  0  0  0  0  0  0  0  0  0
  -10.2300   30.2190  -14.3230 C   0  0  1  0  0  0  0  0  0  0  0  0
   -9.7580   30.2270  -16.7380 O   0  0  0  0  0  0  0  0  0  0  0  0
  -11.6630   30.6890  -14.1090 C   0  0  0  0  0  0  0  0  0  0  0  0
   -9.9510   29.2370  -13.3270 O   0  0  0  0  0  0  0  0  0  0  0  0
   -8.6380   29.1640  -12.9590 C   0  0  0  0  0  0  0  0  0  0  0  0
   -8.2130   29.1740  -11.6350 C   0  0  0  0  0  0  0  0  0  0  0  0
   -7.7230   29.0760  -13.9930 C   0  0  0  0  0  0  0  0  0  0  0  0
   -6.8480   29.0950  -11.3440 C   0  0  0  0  0  0  0  0  0  0  0  0
   -6.3720   28.9970  -13.7050 C   0  0  0  0  0  0  0  0  0  0  0  0
   -5.9260   29.0050  -12.3920 C   0  0  0  0  0  0  0  0  0  0  0  0
   -4.4620   28.9070  -12.1680 C   0  0  0  0  0  0  0  0  0  0  0  0
   -3.9780   27.5300  -12.6870 C   0  0  0  0  0  0  0  0  0  0  0  0
   -4.7680   26.3160  -12.1420 C   0  0  0  0  0  0  0  0  0  0  0  0
   -4.0440   24.9640  -12.2360 C   0  0  0  0  0  0  0  0  0  0  0  0
   -3.8030   24.3310  -10.9580 O   0  0  0  0  0  0  0  0  0  0  0  0
   -2.5650   23.5940  -11.0250 C   0  0  2  0  0  0  0  0  0  0  0  0
   -2.6530   22.1210  -10.6400 C   0  0  2  0  0  0  0  0  0  0  0  0
   -1.4390   24.0570  -10.1270 C   0  0  2  0  0  0  0  0  0  0  0  0
   -0.8000   25.1490  -10.8090 O   0  0  0  0  0  0  0  0  0  0  0  0
   -3.3810   21.8890   -9.4370 O   0  0  0  0  0  0  0  0  0  0  0  0
   -0.5050   22.8590  -10.1210 C   0  0  2  0  0  0  0  0  0  0  0  0
   -1.3170   21.6940  -10.3980 O   0  0  0  0  0  0  0  0  0  0  0  0
    0.2250   22.6080   -8.8100 C   0  0  0  0  0  0  0  0  0  0  0  0
  1  2  1  0
  2  3  1  0
  2  4  2  0
  3  5  1  1
  3  6  1  0
  6  7  1  0
  7  8  2  0
  7  9  1  0
  8 10  1  0
  9 11  2  0
 10 12  2  0
 11 12  1  0
 12 13  1  0
 13 14  1  0
 14 15  1  0
 15 16  1  0
 16 17  1  0
 18 17  1  1
 18 19  1  0
 18 20  1  0
 20 21  1  6
 19 22  1  1
 20 23  1  0
 19 24  1  0
 23 24  1  0
 23 25  1  1
M  END
>  <%Rank>  (963) 
73.435115

>  <N_hits>  (963) 
2

>  <submitter_name>  (963) 
nan

>  <original SMILES>  (963) 
nan

>  <∆G_unbound>  (963) 
0.043098

>  <∆G_bound>  (963) 
-5.695829

>  <regarded>  (963) 
mArh-x0436_0_B_α,mArh-5cms_J_9_J_α

>  <ref_pdb>  (963) 
nan

>  <smiles>  (963) 
CC1OC(O)C(OCCCCc2ccc(O[C@H](C)C(N)=O)cc2)C1O

>  <submitter_email>  (963) 
nan

>  <disregarded>  (963) 


>  <LE>  (963) 
-0.229557

>  <submitter_institution>  (963) 
nan

>  <ref_mols>  (963) 
mArh-x0436_0_B,mArh-5cms_J_9_J

>  <N_constrained_atoms>  (963) 
22.0

>  <ref_url>  (963) 
nan

>  <method>  (963) 
nan

>  <comRMSD>  (963) 
1.120041

>  <N_unconstrained_atoms>  (963) 
3.0

>  <∆∆G>  (963) 
-5.738927

>  <runtime>  (963) 
45.917201

>  <generation_date>  (963) 
nan

$$$$
mArh-EU0144_0_A_α-mArh-x0962_2_B_α
     RDKit          3D

 18 19  0  0  0  0  0  0  0  0999 V2000
   -8.2530   13.5410   -0.7190 C   0  0  0  0  0  0  0  0  0  0  0  0
   -6.8250   13.5010   -0.2070 C   0  0  1  0  0  0  0  0  0  0  0  0
   -5.8590   13.4960   -1.2670 N   0  0  0  0  0  0  0  0  0  0  0  0
   -6.4520   14.7400    0.5380 C   0  0  1  0  0  0  0  0  0  0  0  0
   -7.5080   14.7830    1.6280 C   0  0  0  0  0  0  0  0  0  0  0  0
   -4.9610   14.4440    0.7810 C   0  0  1  0  0  0  0  0  0  0  0  0
   -4.5780   13.8100   -0.5950 C   0  0  2  0  0  0  0  0  0  0  0  0
   -4.1180   15.5200    1.2930 N   0  0  0  0  0  0  0  0  0  0  0  0
   -3.7960   14.6650   -1.5080 C   0  0  0  0  0  0  0  0  0  0  0  0
   -8.8520   15.1860    0.9610 C   0  0  0  0  0  0  0  0  0  0  0  0
   -3.1960   15.2850   -2.2750 N   0  0  0  0  0  0  0  0  0  0  0  0
   -9.9280   15.5830    1.9430 C   0  0  2  0  0  0  0  0  0  0  0  0
  -10.5260   16.8720    1.6690 N   0  0  0  0  0  0  0  0  0  0  0  0
   -9.2530   15.4290    3.2390 C   0  0  0  0  0  0  0  0  0  0  0  0
   -8.9950   16.4330    4.1340 N   0  0  0  0  0  0  0  0  0  0  0  0
   -8.7320   14.3000    3.8230 C   0  0  0  0  0  0  0  0  0  0  0  0
   -8.3410   15.8650    5.1910 C   0  0  0  0  0  0  0  0  0  0  0  0
   -8.1720   14.5750    5.0260 N   0  0  0  0  0  0  0  0  0  0  0  0
  2  1  1  6
  2  3  1  0
  2  4  1  0
  4  5  1  1
  4  6  1  0
  3  7  1  0
  6  7  1  0
  6  8  1  6
  7  9  1  6
  5 10  1  0
  9 11  3  0
 10 12  1  0
 12 13  1  6
 12 14  1  0
 14 15  1  0
 14 16  2  0
 15 17  1  0
 16 18  1  0
 17 18  2  0
M  END
>  <%Rank>  (964) 
73.51145

>  <N_hits>  (964) 
2

>  <submitter_name>  (964) 
nan

>  <original SMILES>  (964) 
nan

>  <∆G_unbound>  (964) 
0.383887

>  <∆G_bound>  (964) 
-0.811166

>  <regarded>  (964) 
mArh-EU0144_0_A_α,mArh-x0962_2_B_α

>  <ref_pdb>  (964) 
nan

>  <smiles>  (964) 
CC1NC(C#N)C(N)C1CCC(N)c1cnc[nH]1

>  <submitter_email>  (964) 
nan

>  <disregarded>  (964) 


>  <LE>  (964) 
-0.066392

>  <submitter_institution>  (964) 
nan

>  <ref_mols>  (964) 
mArh-EU0144_0_A,mArh-x0962_2_B

>  <N_constrained_atoms>  (964) 
16.0

>  <ref_url>  (964) 
nan

>  <method>  (964) 
nan

>  <comRMSD>  (964) 
0.92745

>  <N_unconstrained_atoms>  (964) 
2.0

>  <∆∆G>  (964) 
-1.195054

>  <runtime>  (964) 
34.455565

>  <generation_date>  (964) 
nan

$$$$
mArh-EU0906_0_A_α-mArh-3gqe_A_0_A_α
     RDKit          3D

 24 24  0  0  0  0  0  0  0  0999 V2000
    1.2900   11.2180   -9.8720 N   0  0  0  0  0  0  0  0  0  0  0  0
    0.5770   10.6780   -8.8760 C   0  0  0  0  0  0  0  0  0  0  0  0
   -0.1230    9.5200   -9.0410 C   0  0  0  0  0  0  0  0  0  0  0  0
    0.3620   11.0790   -7.4860 C   0  0  0  0  0  0  0  0  0  0  0  0
    0.8400   12.2130   -6.5400 C   0  0  0  0  0  0  0  0  0  0  0  0
   -0.6980    9.2750   -7.8410 N   0  0  0  0  0  0  0  0  0  0  0  0
   -0.4400   10.1870   -6.9150 N   0  0  0  0  0  0  0  0  0  0  0  0
   -1.5190    8.1690   -7.4530 C   0  0  0  0  0  0  0  0  0  0  0  0
   -0.1100   13.3180   -5.9370 C   0  0  0  0  0  0  0  0  0  0  0  0
   -0.7540    7.3410   -6.4310 C   0  0  0  0  0  0  0  0  0  0  0  0
    0.5650   14.6670   -5.4360 C   0  0  0  0  0  0  0  0  0  0  0  0
   -0.2530   16.0110   -5.3100 C   0  0  0  0  0  0  0  0  0  0  0  0
    0.3980   17.3080   -5.9500 C   0  0  0  0  0  0  0  0  0  0  0  0
   -0.2080   17.7320   -7.2270 O   0  0  0  0  0  0  0  0  0  0  0  0
    0.0540   19.0670   -7.7310 C   0  0  0  0  0  0  0  0  0  0  0  0
   -1.0510   20.1320   -7.5140 C   0  0  0  0  0  0  0  0  0  0  0  0
   -1.9640   19.8570   -6.3880 N   0  0  0  0  0  0  0  0  0  0  0  0
   -2.3700   18.4340   -6.4520 C   0  0  0  0  0  0  0  0  0  0  0  0
   -3.0610   20.8580   -6.2270 C   0  0  0  0  0  0  0  0  0  0  0  0
   -2.2670   17.7290   -5.1170 C   0  0  0  0  0  0  0  0  0  0  0  0
   -3.1430   21.8750   -7.3870 C   0  0  0  0  0  0  0  0  0  0  0  0
   -4.5000   22.1710   -7.7180 O   0  0  0  0  0  0  0  0  0  0  0  0
   -2.8810   16.7670   -4.6880 O   0  0  0  0  0  0  0  0  0  0  0  0
   -1.3510   18.3430   -4.3530 O   0  0  0  0  0  0  0  0  0  0  0  0
  1  2  1  0
  2  3  2  0
  2  4  1  0
  4  5  1  0
  3  6  1  0
  4  7  2  0
  6  7  1  0
  6  8  1  0
  5  9  1  0
  8 10  1  0
  9 11  1  0
 11 12  1  0
 12 13  1  0
 13 14  1  0
 14 15  1  0
 15 16  1  0
 16 17  1  0
 17 18  1  0
 17 19  1  0
 18 20  1  0
 19 21  1  0
 21 22  1  0
 20 23  2  0
 20 24  1  0
M  END
>  <%Rank>  (965) 
73.587786

>  <N_hits>  (965) 
2

>  <submitter_name>  (965) 
nan

>  <original SMILES>  (965) 
nan

>  <∆G_unbound>  (965) 
1.283609

>  <∆G_bound>  (965) 
-6.950322

>  <regarded>  (965) 
mArh-EU0906_0_A_α,mArh-3gqe_A_0_A_α

>  <ref_pdb>  (965) 
nan

>  <smiles>  (965) 
CCn1cc(N)c(CCCCCOCCN(CCO)CC(=O)O)n1

>  <submitter_email>  (965) 
nan

>  <disregarded>  (965) 


>  <LE>  (965) 
-0.34308

>  <submitter_institution>  (965) 
nan

>  <ref_mols>  (965) 
mArh-EU0906_0_A,mArh-3gqe_A_0_A

>  <N_constrained_atoms>  (965) 
19.0

>  <ref_url>  (965) 
nan

>  <method>  (965) 
nan

>  <comRMSD>  (965) 
1.062218

>  <N_unconstrained_atoms>  (965) 
5.0

>  <∆∆G>  (965) 
-8.233931

>  <runtime>  (965) 
40.639349

>  <generation_date>  (965) 
nan

$$$$
mArh-5cb5_D_0_D_γ-mArh-x0587_0_A_α
     RDKit          3D

 23 24  0  0  0  0  0  0  0  0999 V2000
    0.0220   12.3780   -4.8030 O   0  0  0  0  0  0  0  0  0  0  0  0
   -0.3900   13.7210   -4.6370 C   0  0  1  0  0  0  0  0  0  0  0  0
   -0.4280   14.2330   -3.2180 C   0  0  2  0  0  0  0  0  0  0  0  0
    0.6430   14.6130   -5.2570 C   0  0  2  0  0  0  0  0  0  0  0  0
    1.8630   13.9190   -5.2630 O   0  0  0  0  0  0  0  0  0  0  0  0
   -1.6640   13.7690   -2.4510 C   0  0  0  0  0  0  0  0  0  0  0  0
   -0.3320   15.6740   -3.3680 O   0  0  0  0  0  0  0  0  0  0  0  0
    0.6350   15.8970   -4.4240 C   0  0  2  0  0  0  0  0  0  0  0  0
    0.2800   17.1390   -5.2310 C   0  0  0  0  0  0  0  0  0  0  0  0
   -2.2530   14.8650   -1.6100 C   0  0  0  0  0  0  0  0  0  0  0  0
   -3.2550   14.3760   -0.7580 O   0  0  0  0  0  0  0  0  0  0  0  0
   -4.5590   14.4010   -1.3580 C   0  0  0  0  0  0  0  0  0  0  0  0
   -4.6600   13.2240   -2.0370 F   0  0  0  0  0  0  0  0  0  0  0  0
   -4.6090   15.3820   -2.3030 F   0  0  0  0  0  0  0  0  0  0  0  0
   -5.6030   14.5300   -0.2510 C   0  0  0  0  0  0  0  0  0  0  0  0
   -6.9200   14.4380   -0.5650 N   0  0  0  0  0  0  0  0  0  0  0  0
   -5.1370   14.7320    0.9980 N   0  0  0  0  0  0  0  0  0  0  0  0
   -7.7970   14.5640    0.4570 C   0  0  0  0  0  0  0  0  0  0  0  0
   -6.0570   14.8490    1.9740 C   0  0  0  0  0  0  0  0  0  0  0  0
   -7.4140   14.7760    1.7600 C   0  0  0  0  0  0  0  0  0  0  0  0
   -8.3310   14.9320    2.8920 C   0  0  0  0  0  0  0  0  0  0  0  0
   -7.7900   14.9000    4.1420 N   0  0  0  0  0  0  0  0  0  0  0  0
   -9.5320   15.0970    2.7140 O   0  0  0  0  0  0  0  0  0  0  0  0
  2  1  1  1
  2  3  1  0
  2  4  1  0
  4  5  1  1
  3  6  1  6
  3  7  1  0
  4  8  1  0
  7  8  1  0
  8  9  1  6
  6 10  1  0
 10 11  1  0
 11 12  1  0
 12 13  1  0
 12 14  1  0
 12 15  1  0
 15 16  2  0
 15 17  1  0
 16 18  1  0
 17 19  2  0
 18 20  2  0
 19 20  1  0
 20 21  1  0
 21 22  1  0
 21 23  2  0
M  END
>  <%Rank>  (966) 
73.664122

>  <N_hits>  (966) 
2

>  <submitter_name>  (966) 
nan

>  <original SMILES>  (966) 
nan

>  <∆G_unbound>  (966) 
1.570408

>  <∆G_bound>  (966) 
-3.880977

>  <regarded>  (966) 
mArh-5cb5_D_0_D_γ,mArh-x0587_0_A_α

>  <ref_pdb>  (966) 
nan

>  <smiles>  (966) 
CC1OC(CCOC(F)(F)c2ncc(C(N)=O)cn2)C(O)C1O

>  <submitter_email>  (966) 
nan

>  <disregarded>  (966) 


>  <LE>  (966) 
-0.237017

>  <submitter_institution>  (966) 
nan

>  <ref_mols>  (966) 
mArh-5cb5_D_0_D,mArh-x0587_0_A

>  <N_constrained_atoms>  (966) 
21.0

>  <ref_url>  (966) 
nan

>  <method>  (966) 
nan

>  <comRMSD>  (966) 
1.131974

>  <N_unconstrained_atoms>  (966) 
2.0

>  <∆∆G>  (966) 
-5.451386

>  <runtime>  (966) 
36.942088

>  <generation_date>  (966) 
nan

$$$$
5CB5_0_E_δ-mArh-EU0046_0_A_α
     RDKit          3D

 14 15  0  0  0  0  0  0  0  0999 V2000
   -3.8470   15.5370    2.1020 N   0  0  0  0  0  0  0  0  0  0  0  0
   -3.1740   14.9010    1.0360 C   0  0  0  0  0  0  0  0  0  0  0  0
   -3.2210   15.7270   -0.2320 C   0  0  1  0  0  0  0  0  0  0  0  0
   -3.9980   13.7410    0.9070 N   0  0  0  0  0  0  0  0  0  0  0  0
   -1.9000   14.4310    1.4860 N   0  0  0  0  0  0  0  0  0  0  0  0
   -1.9160   15.7860   -1.0000 C   0  0  2  0  0  0  0  0  0  0  0  0
   -4.2860   15.2980   -1.1890 N   0  0  0  0  0  0  0  0  0  0  0  0
   -0.8070   14.3510    0.5140 C   0  0  2  0  0  0  0  0  0  0  0  0
    0.2970   15.3200    0.7880 C   0  0  0  0  0  0  0  0  0  0  0  0
   -2.3760   15.8990   -2.3780 N   0  0  0  0  0  0  0  0  0  0  0  0
   -3.6000   15.1380   -2.4590 C   0  0  0  0  0  0  0  0  0  0  0  0
   -1.1750   14.5770   -0.8790 N   0  0  0  0  0  0  0  0  0  0  0  0
   -1.3620   13.6740   -1.8290 C   0  0  0  0  0  0  0  0  0  0  0  0
   -1.5590   12.9730   -2.7180 N   0  0  0  0  0  0  0  0  0  0  0  0
  2  1  1  0
  2  3  1  0
  2  4  1  0
  2  5  1  0
  3  6  1  0
  3  7  1  6
  5  8  1  0
  8  9  1  1
  6 10  1  6
  7 11  1  0
 10 11  1  0
  6 12  1  0
  8 12  1  0
 12 13  1  0
 13 14  3  0
M  END
>  <%Rank>  (967) 
73.740458

>  <N_hits>  (967) 
2

>  <submitter_name>  (967) 
nan

>  <original SMILES>  (967) 
nan

>  <∆G_unbound>  (967) 
0.743802

>  <∆G_bound>  (967) 
-0.980447

>  <regarded>  (967) 
5CB5_0_E_δ,mArh-EU0046_0_A_α

>  <ref_pdb>  (967) 
nan

>  <smiles>  (967) 
CC1NC(N)(N)C2NCNC2N1C#N

>  <submitter_email>  (967) 
nan

>  <disregarded>  (967) 


>  <LE>  (967) 
-0.123161

>  <submitter_institution>  (967) 
nan

>  <ref_mols>  (967) 
5CB5_0_E,mArh-EU0046_0_A

>  <N_constrained_atoms>  (967) 
14.0

>  <ref_url>  (967) 
nan

>  <method>  (967) 
nan

>  <comRMSD>  (967) 
0.973483

>  <N_unconstrained_atoms>  (967) 
0.0

>  <∆∆G>  (967) 
-1.724249

>  <runtime>  (967) 
28.345905

>  <generation_date>  (967) 
nan

$$$$
5CB5_0_H_α-mArh-x0591_0_A_α
     RDKit          3D

 27 28  0  0  0  0  0  0  0  0999 V2000
   -2.0990   21.4160   -8.9150 C   0  0  0  0  0  0  0  0  0  0  0  0
   -3.0950   22.1220   -8.0670 C   0  0  2  0  0  0  0  0  0  0  0  0
   -4.2300   21.3310   -7.8580 O   0  0  0  0  0  0  0  0  0  0  0  0
   -3.7670   23.4090   -8.5060 C   0  0  1  0  0  0  0  0  0  0  0  0
   -4.5010   23.3160   -9.7270 O   0  0  0  0  0  0  0  0  0  0  0  0
   -4.7370   22.0970   -6.7950 C   0  0  2  0  0  0  0  0  0  0  0  0
   -4.6820   23.5530   -7.2700 C   0  0  2  0  0  0  0  0  0  0  0  0
   -3.7770   21.9960   -5.7570 O   0  0  0  0  0  0  0  0  0  0  0  0
   -6.0010   24.0460   -7.5070 O   0  0  0  0  0  0  0  0  0  0  0  0
   -3.4380   20.6430   -5.5680 C   0  0  0  0  0  0  0  0  0  0  0  0
   -2.1450   20.0940   -6.1940 C   0  0  0  0  0  0  0  0  0  0  0  0
   -1.5430   18.8760   -5.4060 C   0  0  0  0  0  0  0  0  0  0  0  0
   -1.6160   17.5020   -6.1060 C   0  0  0  0  0  0  0  0  0  0  0  0
   -2.6500   16.5190   -5.6130 N   0  0  0  0  0  0  0  0  0  0  0  0
   -2.2630   15.1720   -4.9280 S   0  0  2  0  0  0  0  0  0  0  0  0
   -0.7500   15.6040   -4.3790 N   0  0  0  0  0  0  0  0  0  0  0  0
   -2.0030   13.8850   -5.5310 O   0  0  0  0  0  0  0  0  0  0  0  0
   -3.3670   14.9490   -3.5630 C   0  0  0  0  0  0  0  0  0  0  0  0
   -2.9160   14.7850   -2.2490 C   0  0  0  0  0  0  0  0  0  0  0  0
   -4.7200   14.9530   -3.8380 C   0  0  0  0  0  0  0  0  0  0  0  0
   -3.8570   14.6450   -1.2130 C   0  0  0  0  0  0  0  0  0  0  0  0
   -5.6530   14.8200   -2.8150 C   0  0  0  0  0  0  0  0  0  0  0  0
   -5.2330   14.6720   -1.4960 C   0  0  0  0  0  0  0  0  0  0  0  0
   -6.2360   14.5490   -0.4010 C   0  0  0  0  0  0  0  0  0  0  0  0
   -5.7730   14.4590    0.8910 N   0  0  0  0  0  0  0  0  0  0  0  0
   -7.4310   14.5430   -0.6730 O   0  0  0  0  0  0  0  0  0  0  0  0
   -6.7190   14.5080    1.9770 C   0  0  0  0  0  0  0  0  0  0  0  0
  2  1  1  6
  2  3  1  0
  2  4  1  0
  4  5  1  6
  3  6  1  0
  4  7  1  0
  6  7  1  0
  6  8  1  1
  7  9  1  6
  8 10  1  0
 10 11  1  0
 11 12  1  0
 12 13  1  0
 13 14  1  0
 14 15  2  0
 15 16  1  1
 15 17  2  0
 15 18  1  0
 18 19  2  0
 18 20  1  0
 19 21  1  0
 20 22  2  0
 21 23  2  0
 22 23  1  0
 23 24  1  0
 24 25  1  0
 24 26  2  0
 25 27  1  0
M  END
>  <%Rank>  (968) 
73.816794

>  <N_hits>  (968) 
2

>  <submitter_name>  (968) 
nan

>  <original SMILES>  (968) 
nan

>  <∆G_unbound>  (968) 
0.187808

>  <∆G_bound>  (968) 
-9.643003

>  <regarded>  (968) 
5CB5_0_H_α,mArh-x0591_0_A_α

>  <ref_pdb>  (968) 
nan

>  <smiles>  (968) 
CNC(=O)c1ccc(S(N)(=O)=NCCCCOC2OC(C)C(O)C2O)cc1

>  <submitter_email>  (968) 
nan

>  <disregarded>  (968) 


>  <LE>  (968) 
-0.364104

>  <submitter_institution>  (968) 
nan

>  <ref_mols>  (968) 
5CB5_0_H,mArh-x0591_0_A

>  <N_constrained_atoms>  (968) 
23.0

>  <ref_url>  (968) 
nan

>  <method>  (968) 
nan

>  <comRMSD>  (968) 
1.193932

>  <N_unconstrained_atoms>  (968) 
4.0

>  <∆∆G>  (968) 
-9.83081

>  <runtime>  (968) 
47.785415

>  <generation_date>  (968) 
nan

$$$$
mArh-5cb5_M_1_M_β-mArh-5cms_R_17_R_α
     RDKit          3D

 17 17  0  0  0  0  0  0  0  0999 V2000
   -1.7510   20.7690   -8.0740 O   0  0  0  0  0  0  0  0  0  0  0  0
   -0.4110   19.8790   -7.8620 P   0  0  1  0  0  0  0  0  0  0  0  0
   -0.4670   19.2850   -6.4030 O   0  0  0  0  0  0  0  0  0  0  0  0
   -1.8110   21.8110   -9.0330 C   0  0  1  0  0  0  0  0  0  0  0  0
   -0.1270   18.7520   -8.8120 O   0  0  0  0  0  0  0  0  0  0  0  0
    0.7880   20.9330   -7.7850 O   0  0  0  0  0  0  0  0  0  0  0  0
   -2.7470   21.4530  -10.0460 O   0  0  0  0  0  0  0  0  0  0  0  0
   -2.2450   23.2230   -8.5640 C   0  0  1  0  0  0  0  0  0  0  0  0
   -1.7340   18.4270   -6.0000 P   0  0  0  0  0  0  0  0  0  0  0  0
   -1.2860   24.2430   -8.8040 O   0  0  0  0  0  0  0  0  0  0  0  0
   -3.9430   22.1470   -9.7330 C   0  0  2  0  0  0  0  0  0  0  0  0
   -3.5510   23.5180   -9.3200 C   0  0  2  0  0  0  0  0  0  0  0  0
   -1.1850   17.1290   -5.2690 O   0  0  0  0  0  0  0  0  0  0  0  0
   -2.7170   18.1400   -7.0550 O   0  0  0  0  0  0  0  0  0  0  0  0
   -2.3220   19.2930   -4.7960 O   0  0  0  0  0  0  0  0  0  0  0  0
   -4.5330   21.5660   -8.6120 O   0  0  0  0  0  0  0  0  0  0  0  0
   -3.4680   24.3050  -10.5090 O   0  0  0  0  0  0  0  0  0  0  0  0
  1  2  1  0
  2  3  1  0
  4  1  1  1
  2  5  2  0
  2  6  1  1
  4  7  1  0
  4  8  1  0
  3  9  1  0
  8 10  1  6
  7 11  1  0
  8 12  1  0
 11 12  1  0
  9 13  1  0
  9 14  2  0
  9 15  1  0
 11 16  1  1
 12 17  1  6
M  END
>  <%Rank>  (969) 
73.89313

>  <N_hits>  (969) 
2

>  <submitter_name>  (969) 
nan

>  <original SMILES>  (969) 
nan

>  <∆G_unbound>  (969) 
1.974322

>  <∆G_bound>  (969) 
-6.505414

>  <regarded>  (969) 
mArh-5cb5_M_1_M_β,mArh-5cms_R_17_R_α

>  <ref_pdb>  (969) 
nan

>  <smiles>  (969) 
O=P(O)(O)OP(=O)(O)OC1OC(O)C(O)C1O

>  <submitter_email>  (969) 
nan

>  <disregarded>  (969) 


>  <LE>  (969) 
-0.498808

>  <submitter_institution>  (969) 
nan

>  <ref_mols>  (969) 
mArh-5cb5_M_1_M,mArh-5cms_R_17_R

>  <N_constrained_atoms>  (969) 
17.0

>  <ref_url>  (969) 
nan

>  <method>  (969) 
nan

>  <comRMSD>  (969) 
1.23626

>  <N_unconstrained_atoms>  (969) 
0.0

>  <∆∆G>  (969) 
-8.479736

>  <runtime>  (969) 
36.396902

>  <generation_date>  (969) 
nan

$$$$
5CMS_0_J_α-mArh-1hjz_A_0_A_α
     RDKit          3D

 20 22  0  0  0  0  0  0  0  0999 V2000
    0.3730   21.3810   -8.3610 C   0  0  0  0  0  0  0  0  0  0  0  0
   -0.7640   20.0530   -8.1210 S   0  0  0  0  0  0  0  0  0  0  0  0
    0.6510   20.1120   -7.8910 O   0  0  0  0  0  0  0  0  0  0  0  0
    0.0780   22.7210   -8.8830 C   0  0  0  0  0  0  0  0  0  0  0  0
   -2.0330   21.0850   -8.6420 N   0  0  0  0  0  0  0  0  0  0  0  0
   -0.9340   18.6700   -7.6880 O   0  0  0  0  0  0  0  0  0  0  0  0
   -0.6230   22.4420  -10.1030 N   0  0  0  0  0  0  0  0  0  0  0  0
   -2.3090   21.9470   -7.4800 C   0  0  0  0  0  0  0  0  0  0  0  0
   -1.9210   21.7620   -9.9850 C   0  0  2  0  0  0  0  0  0  0  0  0
   -0.7860   23.4590  -11.0980 C   0  0  2  0  0  0  0  0  0  0  0  0
    0.2660   24.3700  -11.1920 O   0  0  0  0  0  0  0  0  0  0  0  0
   -2.8500   23.0320  -10.2010 C   0  0  1  0  0  0  0  0  0  0  0  0
   -3.6840   22.3360   -7.4850 N   0  0  0  0  0  0  0  0  0  0  0  0
   -1.9120   24.1700  -10.4980 C   0  0  0  0  0  0  0  0  0  0  0  0
   -3.8790   23.0170  -11.1780 O   0  0  0  0  0  0  0  0  0  0  0  0
   -4.1610   22.4660   -8.8760 C   0  0  0  0  0  0  0  0  0  0  0  0
   -3.8530   23.6210   -6.8190 C   0  0  0  0  0  0  0  0  0  0  0  0
   -5.5080   23.1660   -9.0820 C   0  0  0  0  0  0  0  0  0  0  0  0
   -5.2750   24.0860   -6.9750 C   0  0  0  0  0  0  0  0  0  0  0  0
   -5.5610   24.3760   -8.3370 O   0  0  0  0  0  0  0  0  0  0  0  0
  1  2  2  0
  2  3  2  0
  1  4  1  0
  2  5  1  0
  2  6  1  0
  4  7  1  0
  5  8  1  0
  9  5  1  1
  7  9  1  0
  7 10  1  0
 10 11  1  1
  9 12  1  0
  8 13  1  0
 10 14  1  0
 12 14  1  0
 12 15  1  6
 13 16  1  0
 13 17  1  0
 16 18  1  0
 17 19  1  0
 18 20  1  0
 19 20  1  0
M  CHG  1   6  -1
M  END
>  <%Rank>  (970) 
73.969466

>  <N_hits>  (970) 
2

>  <submitter_name>  (970) 
nan

>  <original SMILES>  (970) 
nan

>  <∆G_unbound>  (970) 
1.225074

>  <∆G_bound>  (970) 
-6.132632

>  <regarded>  (970) 
5CMS_0_J_α,mArh-1hjz_A_0_A_α

>  <ref_pdb>  (970) 
nan

>  <smiles>  (970) 
O=S1([O-])=CCN2C(O)CC(O)C2N1CN1CCOCC1

>  <submitter_email>  (970) 
nan

>  <disregarded>  (970) 


>  <LE>  (970) 
-0.367885

>  <submitter_institution>  (970) 
nan

>  <ref_mols>  (970) 
5CMS_0_J,mArh-1hjz_A_0_A

>  <N_constrained_atoms>  (970) 
15.0

>  <ref_url>  (970) 
nan

>  <method>  (970) 
nan

>  <comRMSD>  (970) 
0.958639

>  <N_unconstrained_atoms>  (970) 
5.0

>  <∆∆G>  (970) 
-7.357706

>  <runtime>  (970) 
45.046952

>  <generation_date>  (970) 
nan

$$$$
5CMS_0_F_β-5CMS_0_J_γ
     RDKit          3D

 16 16  0  0  0  0  0  0  0  0999 V2000
   -1.5600   20.2790   -8.4180 O   0  0  0  0  0  0  0  0  0  0  0  0
   -0.2230   19.7560   -7.5950 P   0  0  0  0  0  0  0  0  0  0  0  0
   -0.2190   18.3250   -6.7390 O   0  0  0  0  0  0  0  0  0  0  0  0
    0.2080   18.9230   -8.7630 O   0  0  0  0  0  0  0  0  0  0  0  0
    1.0530   20.7000   -7.6110 O   0  0  0  0  0  0  0  0  0  0  0  0
   -1.5570   17.9820   -5.9380 P   0  0  0  0  0  0  0  0  0  0  0  0
   -1.2400   16.4690   -5.6130 O   0  0  0  0  0  0  0  0  0  0  0  0
   -2.8810   17.3380   -6.7460 O   0  0  0  0  0  0  0  0  0  0  0  0
   -1.7240   18.4480   -4.4220 O   0  0  0  0  0  0  0  0  0  0  0  0
   -0.1750   15.7900   -4.9640 C   0  0  1  0  0  0  0  0  0  0  0  0
   -0.2780   15.8410   -3.5790 O   0  0  0  0  0  0  0  0  0  0  0  0
   -0.0960   14.3200   -5.2500 C   0  0  1  0  0  0  0  0  0  0  0  0
    1.1840   13.7540   -5.0430 O   0  0  0  0  0  0  0  0  0  0  0  0
   -1.2990   14.9260   -3.2710 C   0  0  0  0  0  0  0  0  0  0  0  0
   -0.9260   13.6990   -4.1180 C   0  0  1  0  0  0  0  0  0  0  0  0
   -2.0030   13.0640   -4.6780 O   0  0  0  0  0  0  0  0  0  0  0  0
  1  2  1  0
  2  3  1  0
  2  4  1  0
  2  5  1  0
  3  6  1  0
  6  7  1  0
  6  8  1  0
  6  9  1  0
 10  7  1  6
 10 11  1  0
 10 12  1  0
 12 13  1  1
 11 14  1  0
 12 15  1  0
 14 15  1  0
 15 16  1  6
M  CHG  2   4  -1   8  -1
M  END
>  <%Rank>  (971) 
74.045802

>  <N_hits>  (971) 
2

>  <submitter_name>  (971) 
nan

>  <original SMILES>  (971) 
nan

>  <∆G_unbound>  (971) 
1.160673

>  <∆G_bound>  (971) 
-6.557175

>  <regarded>  (971) 
5CMS_0_F_β,5CMS_0_J_γ

>  <ref_pdb>  (971) 
nan

>  <smiles>  (971) 
[O-][PH](O)(O)O[PH]([O-])(O)OC1OCC(O)C1O

>  <submitter_email>  (971) 
nan

>  <disregarded>  (971) 


>  <LE>  (971) 
-0.482366

>  <submitter_institution>  (971) 
nan

>  <ref_mols>  (971) 
5CMS_0_F,5CMS_0_J

>  <N_constrained_atoms>  (971) 
16.0

>  <ref_url>  (971) 
nan

>  <method>  (971) 
nan

>  <comRMSD>  (971) 
1.207917

>  <N_unconstrained_atoms>  (971) 
0.0

>  <∆∆G>  (971) 
-7.717849

>  <runtime>  (971) 
24.19306

>  <generation_date>  (971) 
nan

$$$$
5CMS_0_C_δ-5CB3_0_A_α
     RDKit          3D

 24 26  0  0  0  0  0  0  0  0999 V2000
   -3.8040   15.6690    1.6140 N   0  0  0  0  0  0  0  0  0  0  0  0
   -2.7560   14.8770    1.0030 C   0  0  1  0  0  0  0  0  0  0  0  0
   -2.7860   14.6950   -0.5380 C   0  0  2  0  0  0  0  0  0  0  0  0
   -1.5210   15.4950    1.4170 N   0  0  0  0  0  0  0  0  0  0  0  0
   -1.3630   14.8080   -0.9970 C   0  0  2  0  0  0  0  0  0  0  0  0
   -3.3360   15.6120   -1.5700 N   0  0  0  0  0  0  0  0  0  0  0  0
   -0.3470   14.6840    1.1450 C   0  0  0  0  0  0  0  0  0  0  0  0
   -1.5710   14.2410   -2.3040 N   0  0  0  0  0  0  0  0  0  0  0  0
   -2.6140   15.1390   -2.8180 C   0  0  2  0  0  0  0  0  0  0  0  0
   -0.4160   14.0950   -0.1830 N   0  0  0  0  0  0  0  0  0  0  0  0
   -1.9180   16.2780   -3.6280 C   0  0  0  0  0  0  0  0  0  0  0  0
   -2.3230   16.7730   -5.0490 C   0  0  0  0  0  0  0  0  0  0  0  0
   -1.7960   18.2250   -5.3610 C   0  0  0  0  0  0  0  0  0  0  0  0
   -2.5830   19.0820   -6.4080 C   0  0  0  0  0  0  0  0  0  0  0  0
   -3.0770   20.4810   -5.8970 C   0  0  0  0  0  0  0  0  0  0  0  0
   -4.5090   20.6980   -6.0660 O   0  0  0  0  0  0  0  0  0  0  0  0
   -4.9170   21.5530   -7.1540 C   0  0  2  0  0  0  0  0  0  0  0  0
   -4.4110   21.0220   -8.3720 O   0  0  0  0  0  0  0  0  0  0  0  0
   -4.3710   22.9890   -6.9910 C   0  0  2  0  0  0  0  0  0  0  0  0
   -5.4120   23.9660   -6.7220 O   0  0  0  0  0  0  0  0  0  0  0  0
   -3.3990   21.9020   -8.8620 C   0  0  1  0  0  0  0  0  0  0  0  0
   -3.7830   23.2880   -8.3780 C   0  0  1  0  0  0  0  0  0  0  0  0
   -2.0220   21.4620   -8.3860 C   0  0  0  0  0  0  0  0  0  0  0  0
   -4.7100   23.9160   -9.2650 O   0  0  0  0  0  0  0  0  0  0  0  0
  2  1  1  6
  2  3  1  0
  2  4  1  0
  3  5  1  0
  3  6  1  6
  4  7  1  0
  5  8  1  6
  6  9  1  0
  8  9  1  0
  5 10  1  0
  7 10  1  0
  9 11  1  1
 11 12  1  0
 12 13  1  0
 13 14  1  0
 14 15  1  0
 15 16  1  0
 17 16  1  1
 17 18  1  0
 17 19  1  0
 19 20  1  6
 18 21  1  0
 19 22  1  0
 21 22  1  0
 21 23  1  1
 22 24  1  6
M  END
>  <%Rank>  (972) 
74.122137

>  <N_hits>  (972) 
2

>  <submitter_name>  (972) 
nan

>  <original SMILES>  (972) 
nan

>  <∆G_unbound>  (972) 
0.335171

>  <∆G_bound>  (972) 
-9.682973

>  <regarded>  (972) 
5CMS_0_C_δ,5CB3_0_A_α

>  <ref_pdb>  (972) 
nan

>  <smiles>  (972) 
CC1OC(OCCCCCC2NC3NCNC(N)C3N2)C(O)C1O

>  <submitter_email>  (972) 
nan

>  <disregarded>  (972) 


>  <LE>  (972) 
-0.417423

>  <submitter_institution>  (972) 
nan

>  <ref_mols>  (972) 
5CMS_0_C,5CB3_0_A

>  <N_constrained_atoms>  (972) 
19.0

>  <ref_url>  (972) 
nan

>  <method>  (972) 
nan

>  <comRMSD>  (972) 
1.112853

>  <N_unconstrained_atoms>  (972) 
5.0

>  <∆∆G>  (972) 
-10.018144

>  <runtime>  (972) 
54.188667

>  <generation_date>  (972) 
nan

$$$$
5CMS_0_O_β-mArh-5cms_L_11_L_γ
     RDKit          3D

 16 16  0  0  0  0  0  0  0  0999 V2000
   -1.5350   20.2490   -8.3680 O   0  0  0  0  0  0  0  0  0  0  0  0
   -0.2100   19.6980   -7.5550 P   0  0  0  0  0  0  0  0  0  0  0  0
   -0.2510   18.2980   -6.6540 O   0  0  0  0  0  0  0  0  0  0  0  0
    0.2150   18.8280   -8.7090 O   0  0  0  0  0  0  0  0  0  0  0  0
    1.0590   20.6390   -7.5930 O   0  0  0  0  0  0  0  0  0  0  0  0
   -1.6780   17.9920   -6.0000 P   0  0  0  0  0  0  0  0  0  0  0  0
   -1.2610   16.7370   -5.1430 O   0  0  0  0  0  0  0  0  0  0  0  0
   -2.7790   16.9570   -6.7310 O   0  0  0  0  0  0  0  0  0  0  0  0
   -2.1630   18.9100   -4.7670 O   0  0  0  0  0  0  0  0  0  0  0  0
   -0.0330   16.0490   -5.0440 C   0  0  1  0  0  0  0  0  0  0  0  0
    0.4610   16.1720   -3.7380 O   0  0  0  0  0  0  0  0  0  0  0  0
   -0.0730   14.5660   -5.3180 C   0  0  1  0  0  0  0  0  0  0  0  0
    0.9040   14.0980   -6.2050 O   0  0  0  0  0  0  0  0  0  0  0  0
   -0.0320   15.0500   -3.0590 C   0  0  0  0  0  0  0  0  0  0  0  0
    0.4440   13.9690   -4.0180 C   0  0  1  0  0  0  0  0  0  0  0  0
   -0.1220   12.7350   -3.8440 O   0  0  0  0  0  0  0  0  0  0  0  0
  1  2  1  0
  2  3  1  0
  2  4  1  0
  2  5  1  0
  3  6  1  0
  6  7  1  0
  6  8  1  0
  6  9  1  0
 10  7  1  1
 10 11  1  0
 10 12  1  0
 12 13  1  6
 11 14  1  0
 12 15  1  0
 14 15  1  0
 15 16  1  1
M  CHG  2   4  -1   8  -1
M  END
>  <%Rank>  (973) 
74.198473

>  <N_hits>  (973) 
2

>  <submitter_name>  (973) 
nan

>  <original SMILES>  (973) 
nan

>  <∆G_unbound>  (973) 
1.160673

>  <∆G_bound>  (973) 
-6.84945

>  <regarded>  (973) 
5CMS_0_O_β,mArh-5cms_L_11_L_γ

>  <ref_pdb>  (973) 
nan

>  <smiles>  (973) 
[O-][PH](O)(O)O[PH]([O-])(O)OC1OCC(O)C1O

>  <submitter_email>  (973) 
nan

>  <disregarded>  (973) 


>  <LE>  (973) 
-0.500633

>  <submitter_institution>  (973) 
nan

>  <ref_mols>  (973) 
5CMS_0_O,mArh-5cms_L_11_L

>  <N_constrained_atoms>  (973) 
16.0

>  <ref_url>  (973) 
nan

>  <method>  (973) 
nan

>  <comRMSD>  (973) 
1.225432

>  <N_unconstrained_atoms>  (973) 
0.0

>  <∆∆G>  (973) 
-8.010123

>  <runtime>  (973) 
27.637789

>  <generation_date>  (973) 
nan

$$$$
5CMS_0_H_β-mArh-5cms_N_13_N_γ
     RDKit          3D

 16 16  0  0  0  0  0  0  0  0999 V2000
   -1.4220   20.4970   -8.4540 O   0  0  0  0  0  0  0  0  0  0  0  0
   -0.4690   19.4420   -7.6070 P   0  0  0  0  0  0  0  0  0  0  0  0
   -1.0300   17.9290   -7.2520 O   0  0  0  0  0  0  0  0  0  0  0  0
    0.0820   18.7760   -8.8260 O   0  0  0  0  0  0  0  0  0  0  0  0
    0.9820   19.9060   -7.2160 O   0  0  0  0  0  0  0  0  0  0  0  0
   -2.0370   17.7230   -6.0310 P   0  0  0  0  0  0  0  0  0  0  0  0
   -1.4350   16.3810   -5.4840 O   0  0  0  0  0  0  0  0  0  0  0  0
   -3.4000   16.7260   -6.2460 O   0  0  0  0  0  0  0  0  0  0  0  0
   -1.8360   18.5550   -4.6640 O   0  0  0  0  0  0  0  0  0  0  0  0
   -0.1340   15.9080   -5.2560 C   0  0  1  0  0  0  0  0  0  0  0  0
    0.3130   16.2680   -3.9760 O   0  0  0  0  0  0  0  0  0  0  0  0
   -0.0440   14.4050   -5.3360 C   0  0  1  0  0  0  0  0  0  0  0  0
    0.7070   13.8580   -6.3860 O   0  0  0  0  0  0  0  0  0  0  0  0
    0.1990   15.1060   -3.1900 C   0  0  0  0  0  0  0  0  0  0  0  0
    0.8180   14.0920   -4.1410 C   0  0  1  0  0  0  0  0  0  0  0  0
    0.6250   12.7760   -3.7970 O   0  0  0  0  0  0  0  0  0  0  0  0
  1  2  1  0
  2  3  1  0
  2  4  1  0
  2  5  1  0
  3  6  1  0
  6  7  1  0
  6  8  1  0
  6  9  1  0
 10  7  1  1
 10 11  1  0
 10 12  1  0
 12 13  1  6
 11 14  1  0
 12 15  1  0
 14 15  1  0
 15 16  1  1
M  CHG  2   4  -1   8  -1
M  END
>  <%Rank>  (974) 
74.274809

>  <N_hits>  (974) 
2

>  <submitter_name>  (974) 
nan

>  <original SMILES>  (974) 
nan

>  <∆G_unbound>  (974) 
1.160673

>  <∆G_bound>  (974) 
-6.169461

>  <regarded>  (974) 
5CMS_0_H_β,mArh-5cms_N_13_N_γ

>  <ref_pdb>  (974) 
nan

>  <smiles>  (974) 
[O-][PH](O)(O)O[PH]([O-])(O)OC1OCC(O)C1O

>  <submitter_email>  (974) 
nan

>  <disregarded>  (974) 


>  <LE>  (974) 
-0.458133

>  <submitter_institution>  (974) 
nan

>  <ref_mols>  (974) 
5CMS_0_H,mArh-5cms_N_13_N

>  <N_constrained_atoms>  (974) 
16.0

>  <ref_url>  (974) 
nan

>  <method>  (974) 
nan

>  <comRMSD>  (974) 
1.205527

>  <N_unconstrained_atoms>  (974) 
0.0

>  <∆∆G>  (974) 
-7.330134

>  <runtime>  (974) 
33.419261

>  <generation_date>  (974) 
nan

$$$$
mArh-x0711_0_A_α-mArh-3vfq_B_0_A_α
     RDKit          3D

 28 29  0  0  0  0  0  0  0  0999 V2000
   -1.7540   15.1370   -2.7790 N   0  0  0  0  0  0  0  0  0  0  0  0
   -0.4840   14.0690   -3.1480 S   0  0  1  0  0  0  0  0  0  0  0  0
   -1.1560   12.8960   -4.2930 C   0  0  0  0  0  0  0  0  0  0  0  0
   -2.8580   14.9520   -1.9010 C   0  0  0  0  0  0  0  0  0  0  0  0
    0.3860   15.1010   -3.9080 N   0  0  0  0  0  0  0  0  0  0  0  0
   -0.1360   13.3680   -1.9310 O   0  0  0  0  0  0  0  0  0  0  0  0
   -4.1260   15.1850   -2.4370 C   0  0  0  0  0  0  0  0  0  0  0  0
   -2.7650   14.5770   -0.5540 C   0  0  0  0  0  0  0  0  0  0  0  0
   -0.1920   15.8040   -5.0810 C   0  0  0  0  0  0  0  0  0  0  0  0
   -5.2740   15.0570   -1.6620 C   0  0  0  0  0  0  0  0  0  0  0  0
   -3.9220   14.4450    0.2370 C   0  0  0  0  0  0  0  0  0  0  0  0
   -0.0270   17.3450   -5.0430 C   0  0  0  0  0  0  0  0  0  0  0  0
   -5.1850   14.6870   -0.3170 C   0  0  0  0  0  0  0  0  0  0  0  0
   -6.4690   14.5820    0.4280 C   0  0  0  0  0  0  0  0  0  0  0  0
   -1.3360   18.1540   -5.2500 C   0  0  0  0  0  0  0  0  0  0  0  0
   -6.4730   14.6280    1.8040 N   0  0  0  0  0  0  0  0  0  0  0  0
   -7.5420   14.4680   -0.1810 O   0  0  0  0  0  0  0  0  0  0  0  0
   -1.6960   18.5390   -6.7080 C   0  0  0  0  0  0  0  0  0  0  0  0
   -2.1580   20.0040   -6.9940 C   0  0  0  0  0  0  0  0  0  0  0  0
   -3.6960   20.2230   -6.8960 C   0  0  0  0  0  0  0  0  0  0  0  0
   -4.3370   21.3780   -7.6980 C   0  0  1  0  0  0  0  0  0  0  0  0
   -3.8900   21.4860   -9.0440 O   0  0  0  0  0  0  0  0  0  0  0  0
   -5.8670   21.4240   -7.7500 C   0  0  1  0  0  0  0  0  0  0  0  0
   -6.2240   22.4670   -6.8660 O   0  0  0  0  0  0  0  0  0  0  0  0
   -4.8680   22.2720   -9.7270 C   0  0  1  0  0  0  0  0  0  0  0  0
   -6.2300   21.8370   -9.1680 C   0  0  2  0  0  0  0  0  0  0  0  0
   -4.6470   23.6590   -9.5250 O   0  0  0  0  0  0  0  0  0  0  0  0
   -7.1300   22.9440   -9.2010 O   0  0  0  0  0  0  0  0  0  0  0  0
  2  1  1  0
  2  3  1  6
  1  4  1  0
  2  5  2  0
  2  6  2  0
  4  7  2  0
  4  8  1  0
  5  9  1  0
  7 10  1  0
  8 11  2  0
  9 12  1  0
 10 13  2  0
 11 13  1  0
 13 14  1  0
 12 15  1  0
 14 16  1  0
 14 17  2  0
 15 18  1  0
 18 19  1  0
 19 20  1  0
 21 20  1  6
 21 22  1  0
 21 23  1  0
 23 24  1  1
 22 25  1  0
 23 26  1  0
 25 26  1  0
 25 27  1  1
 26 28  1  1
M  END
>  <%Rank>  (975) 
74.351145

>  <N_hits>  (975) 
2

>  <submitter_name>  (975) 
nan

>  <original SMILES>  (975) 
nan

>  <∆G_unbound>  (975) 
1.145869

>  <∆G_bound>  (975) 
-10.038146

>  <regarded>  (975) 
mArh-x0711_0_A_α,mArh-3vfq_B_0_A_α

>  <ref_pdb>  (975) 
nan

>  <smiles>  (975) 
CS(=O)(=NCCCCCCC1OC(O)C(O)C1O)Nc1ccc(C(N)=O)cc1

>  <submitter_email>  (975) 
nan

>  <disregarded>  (975) 


>  <LE>  (975) 
-0.399429

>  <submitter_institution>  (975) 
nan

>  <ref_mols>  (975) 
mArh-x0711_0_A,mArh-3vfq_B_0_A

>  <N_constrained_atoms>  (975) 
23.0

>  <ref_url>  (975) 
nan

>  <method>  (975) 
nan

>  <comRMSD>  (975) 
1.205456

>  <N_unconstrained_atoms>  (975) 
5.0

>  <∆∆G>  (975) 
-11.184015

>  <runtime>  (975) 
47.824322

>  <generation_date>  (975) 
nan

$$$$
mArh-x0685_1_A_α-4IQY_0_A_β
     RDKit          3D

 24 24  0  0  0  0  0  0  0  0999 V2000
   -0.9770   11.0100   -5.0220 N   0  0  0  0  0  0  0  0  0  0  0  0
   -1.1390   12.3560   -4.9160 C   0  0  0  0  0  0  0  0  0  0  0  0
   -0.6170   13.2530   -3.8050 C   0  0  1  0  0  0  0  0  0  0  0  0
   -0.5140   10.5190   -6.2980 C   0  0  0  0  0  0  0  0  0  0  0  0
   -0.5570    8.9990   -6.3860 C   0  0  0  0  0  0  0  0  0  0  0  0
   -1.4930   11.0080   -7.3460 C   0  0  0  0  0  0  0  0  0  0  0  0
    0.3310   12.3520   -2.6020 S   0  0  0  0  0  0  0  0  0  0  0  0
    0.0570   14.5130   -4.2980 C   0  0  0  0  0  0  0  0  0  0  0  0
    0.0460    8.5760   -7.7130 C   0  0  0  0  0  0  0  0  0  0  0  0
   -1.1030   10.5740   -8.7410 C   0  0  0  0  0  0  0  0  0  0  0  0
    2.0770   12.5500   -3.3110 O   0  0  0  0  0  0  0  0  0  0  0  0
    0.2510   10.7520   -2.7280 O   0  0  0  0  0  0  0  0  0  0  0  0
    0.4060   12.9750   -1.2920 O   0  0  0  0  0  0  0  0  0  0  0  0
   -1.0680   15.5580   -4.6470 C   0  0  0  0  0  0  0  0  0  0  0  0
   -0.8420    9.0860   -8.8210 C   0  0  0  0  0  0  0  0  0  0  0  0
   -0.5520   16.7980   -5.1550 O   0  0  0  0  0  0  0  0  0  0  0  0
   -1.4750   17.7090   -6.0310 P   0  0  0  0  0  0  0  0  0  0  0  0
   -0.7720   19.1180   -6.0500 O   0  0  0  0  0  0  0  0  0  0  0  0
   -2.5420   17.3240   -4.7750 O   0  0  0  0  0  0  0  0  0  0  0  0
   -2.7220   18.1060   -6.8390 O   0  0  0  0  0  0  0  0  0  0  0  0
   -0.3210   19.7320   -7.5170 P   0  0  0  0  0  0  0  0  0  0  0  0
   -1.7470   19.9990   -7.9870 O   0  0  0  0  0  0  0  0  0  0  0  0
    1.1140   19.5350   -7.0700 O   0  0  0  0  0  0  0  0  0  0  0  0
   -0.0080   18.6630   -8.7280 O   0  0  0  0  0  0  0  0  0  0  0  0
  1  2  1  0
  3  2  1  6
  1  4  1  0
  4  5  1  0
  4  6  1  0
  3  7  1  0
  3  8  1  0
  5  9  1  0
  6 10  1  0
  7 11  1  0
  7 12  1  0
  7 13  1  0
  8 14  1  0
  9 15  1  0
 10 15  1  0
 14 16  1  0
 16 17  1  0
 17 18  1  0
 17 19  1  0
 17 20  1  0
 18 21  1  0
 21 22  1  0
 21 23  1  0
 21 24  1  0
M  CHG  2  19  -1  23  -1
M  END
>  <%Rank>  (976) 
74.427481

>  <N_hits>  (976) 
2

>  <submitter_name>  (976) 
nan

>  <original SMILES>  (976) 
nan

>  <∆G_unbound>  (976) 
0.959549

>  <∆G_bound>  (976) 
-8.788801

>  <regarded>  (976) 
mArh-x0685_1_A_α,4IQY_0_A_β

>  <ref_pdb>  (976) 
nan

>  <smiles>  (976) 
[O-][PH](O)(O)O[PH]([O-])(O)OCCC(CNC1CCCCC1)S(O)(O)O

>  <submitter_email>  (976) 
nan

>  <disregarded>  (976) 


>  <LE>  (976) 
-0.406181

>  <submitter_institution>  (976) 
nan

>  <ref_mols>  (976) 
mArh-x0685_1_A,4IQY_0_A

>  <N_constrained_atoms>  (976) 
22.0

>  <ref_url>  (976) 
nan

>  <method>  (976) 
nan

>  <comRMSD>  (976) 
1.2562

>  <N_unconstrained_atoms>  (976) 
2.0

>  <∆∆G>  (976) 
-9.74835

>  <runtime>  (976) 
43.621215

>  <generation_date>  (976) 
nan

$$$$
5CMS_0_M_β-5MQX_0_A_γ
     RDKit          3D

 19 19  0  0  0  0  0  0  0  0999 V2000
   -1.7760   20.4660   -7.8670 O   0  0  0  0  0  0  0  0  0  0  0  0
   -0.2520   19.8500   -7.9760 P   0  0  0  0  0  0  0  0  0  0  0  0
   -0.3920   18.9820   -6.7390 O   0  0  0  0  0  0  0  0  0  0  0  0
    1.0410   20.7040   -7.4500 O   0  0  0  0  0  0  0  0  0  0  0  0
   -0.0330   18.5180   -8.9060 O   0  0  0  0  0  0  0  0  0  0  0  0
   -1.9020   18.5170   -6.3480 P   0  0  0  0  0  0  0  0  0  0  0  0
   -2.4480   17.0320   -6.4970 O   0  0  0  0  0  0  0  0  0  0  0  0
   -1.6170   18.2900   -4.8960 O   0  0  0  0  0  0  0  0  0  0  0  0
   -2.8860   19.8060   -5.8150 O   0  0  0  0  0  0  0  0  0  0  0  0
   -2.8120   16.2280   -5.4370 C   0  0  0  0  0  0  0  0  0  0  0  0
   -2.0940   14.8590   -5.5550 C   0  0  0  0  0  0  0  0  0  0  0  0
   -2.1840   14.0350   -4.3240 C   0  0  0  0  0  0  0  0  0  0  0  0
   -0.8250   13.6640   -3.8190 C   0  0  1  0  0  0  0  0  0  0  0  0
   -0.9110   13.7040   -2.4140 O   0  0  0  0  0  0  0  0  0  0  0  0
   -0.2410   12.2940   -4.0990 C   0  0  2  0  0  0  0  0  0  0  0  0
   -1.0090   11.3120   -4.6370 O   0  0  0  0  0  0  0  0  0  0  0  0
    0.2760   13.1330   -1.9740 C   0  0  0  0  0  0  0  0  0  0  0  0
    0.5020   11.9060   -2.8360 C   0  0  1  0  0  0  0  0  0  0  0  0
    0.1570   10.6880   -2.2790 O   0  0  0  0  0  0  0  0  0  0  0  0
  1  2  1  0
  2  3  1  0
  2  4  1  0
  2  5  1  0
  3  6  1  0
  6  7  1  0
  6  8  1  0
  6  9  1  0
  7 10  1  0
 10 11  1  0
 11 12  1  0
 13 12  1  6
 13 14  1  0
 13 15  1  0
 15 16  1  1
 14 17  1  0
 15 18  1  0
 17 18  1  0
 18 19  1  1
M  CHG  2   4  -1   8  -1
M  END
>  <%Rank>  (977) 
74.503817

>  <N_hits>  (977) 
2

>  <submitter_name>  (977) 
nan

>  <original SMILES>  (977) 
nan

>  <∆G_unbound>  (977) 
1.155461

>  <∆G_bound>  (977) 
-8.139109

>  <regarded>  (977) 
5CMS_0_M_β,5MQX_0_A_γ

>  <ref_pdb>  (977) 
nan

>  <smiles>  (977) 
[O-][PH](O)(O)O[PH]([O-])(O)OCCCC1OCC(O)C1O

>  <submitter_email>  (977) 
nan

>  <disregarded>  (977) 


>  <LE>  (977) 
-0.489188

>  <submitter_institution>  (977) 
nan

>  <ref_mols>  (977) 
5CMS_0_M,5MQX_0_A

>  <N_constrained_atoms>  (977) 
17.0

>  <ref_url>  (977) 
nan

>  <method>  (977) 
nan

>  <comRMSD>  (977) 
1.194749

>  <N_unconstrained_atoms>  (977) 
2.0

>  <∆∆G>  (977) 
-9.29457

>  <runtime>  (977) 
34.387199

>  <generation_date>  (977) 
nan

$$$$
5CMS_0_N_α-5CMS_0_E_β
     RDKit          3D

 17 17  0  0  0  0  0  0  0  0999 V2000
   -1.6740   21.5880   -8.3990 C   0  0  0  0  0  0  0  0  0  0  0  0
   -0.6420   20.1020   -8.1360 P   0  0  0  0  0  0  0  0  0  0  0  0
   -1.6490   19.0880   -7.5550 O   0  0  0  0  0  0  0  0  0  0  0  0
   -2.9630   21.6490   -9.2790 C   0  0  1  0  0  0  0  0  0  0  0  0
    0.3090   19.9460   -6.8800 O   0  0  0  0  0  0  0  0  0  0  0  0
   -0.3530   18.7820   -9.1460 O   0  0  0  0  0  0  0  0  0  0  0  0
   -4.1460   21.5400   -8.5460 O   0  0  0  0  0  0  0  0  0  0  0  0
   -3.2820   22.8630  -10.1290 C   0  0  1  0  0  0  0  0  0  0  0  0
   -3.5120   22.3430  -11.3970 O   0  0  0  0  0  0  0  0  0  0  0  0
   -1.6080   18.4230   -6.0490 P   0  0  0  0  0  0  0  0  0  0  0  0
   -4.9950   22.6360   -8.7510 C   0  0  2  0  0  0  0  0  0  0  0  0
   -4.6470   23.3530   -9.9650 C   0  0  2  0  0  0  0  0  0  0  0  0
   -4.9170   23.6400   -7.8050 O   0  0  0  0  0  0  0  0  0  0  0  0
   -5.3040   22.9430  -11.1510 O   0  0  0  0  0  0  0  0  0  0  0  0
   -0.7470   17.0350   -5.6470 O   0  0  0  0  0  0  0  0  0  0  0  0
   -2.7370   17.5040   -6.5150 O   0  0  0  0  0  0  0  0  0  0  0  0
   -2.3160   19.2330   -4.8760 O   0  0  0  0  0  0  0  0  0  0  0  0
  1  2  1  0
  2  3  1  0
  4  1  1  1
  2  5  1  0
  2  6  1  0
  4  7  1  0
  4  8  1  0
  8  9  1  6
  3 10  1  0
  7 11  1  0
  8 12  1  0
 11 12  1  0
 11 13  1  1
 12 14  1  6
 10 15  1  0
 10 16  1  0
 10 17  1  0
M  CHG  2   5  -1  16  -1
M  END
>  <%Rank>  (978) 
74.580153

>  <N_hits>  (978) 
2

>  <submitter_name>  (978) 
nan

>  <original SMILES>  (978) 
nan

>  <∆G_unbound>  (978) 
1.818629

>  <∆G_bound>  (978) 
-4.039336

>  <regarded>  (978) 
5CMS_0_N_α,5CMS_0_E_β

>  <ref_pdb>  (978) 
nan

>  <smiles>  (978) 
[O-][PH](O)(O)O[PH]([O-])(O)CC1OC(O)C(O)C1O

>  <submitter_email>  (978) 
nan

>  <disregarded>  (978) 


>  <LE>  (978) 
-0.344586

>  <submitter_institution>  (978) 
nan

>  <ref_mols>  (978) 
5CMS_0_N,5CMS_0_E

>  <N_constrained_atoms>  (978) 
17.0

>  <ref_url>  (978) 
nan

>  <method>  (978) 
nan

>  <comRMSD>  (978) 
1.182164

>  <N_unconstrained_atoms>  (978) 
0.0

>  <∆∆G>  (978) 
-5.857965

>  <runtime>  (978) 
32.924837

>  <generation_date>  (978) 
nan

$$$$
5CMS_0_I_β-mArh-3ew5_B_0_B_α
     RDKit          3D

 15 14  0  0  0  0  0  0  0  0999 V2000
    0.3400   19.0960   -8.8410 O   0  0  0  0  0  0  0  0  0  0  0  0
   -0.6020   19.7540   -7.6730 P   0  0  0  0  0  0  0  0  0  0  0  0
   -0.5610   19.1150   -6.2190 O   0  0  0  0  0  0  0  0  0  0  0  0
    0.5680   20.6830   -7.4220 O   0  0  0  0  0  0  0  0  0  0  0  0
   -1.5330   18.7080   -8.1590 O   0  0  0  0  0  0  0  0  0  0  0  0
   -1.6510   20.9950   -7.9770 O   0  0  0  0  0  0  0  0  0  0  0  0
   -1.3620   17.7510   -6.0050 P   0  0  0  0  0  0  0  0  0  0  0  0
   -2.7190   21.0860   -7.1080 C   0  0  0  0  0  0  0  0  0  0  0  0
   -0.6920   16.5080   -5.1550 O   0  0  0  0  0  0  0  0  0  0  0  0
   -2.1110   18.2970   -4.8490 O   0  0  0  0  0  0  0  0  0  0  0  0
   -2.8210   17.5000   -6.7070 O   0  0  0  0  0  0  0  0  0  0  0  0
   -3.6790   22.1780   -7.5230 C   0  0  2  0  0  0  0  0  0  0  0  0
   -5.1080   22.0660   -6.9660 C   0  0  0  0  0  0  0  0  0  0  0  0
   -3.8370   22.1610   -8.9070 O   0  0  0  0  0  0  0  0  0  0  0  0
   -5.1760   21.4740   -5.7100 O   0  0  0  0  0  0  0  0  0  0  0  0
  1  2  1  0
  2  3  1  0
  2  4  1  0
  2  5  1  0
  2  6  1  0
  3  7  1  0
  6  8  1  0
  7  9  1  0
  7 10  1  0
  7 11  1  0
  8 12  1  0
 12 13  1  0
 12 14  1  6
 13 15  1  0
M  CHG  2   4  -1  10  -1
M  END
>  <%Rank>  (979) 
74.656489

>  <N_hits>  (979) 
2

>  <submitter_name>  (979) 
nan

>  <original SMILES>  (979) 
nan

>  <∆G_unbound>  (979) 
0.718058

>  <∆G_bound>  (979) 
-6.591465

>  <regarded>  (979) 
5CMS_0_I_β,mArh-3ew5_B_0_B_α

>  <ref_pdb>  (979) 
nan

>  <smiles>  (979) 
[O-][PH](O)(O)OP([O-])(O)(O)OC[C@@H](O)CO

>  <submitter_email>  (979) 
nan

>  <disregarded>  (979) 


>  <LE>  (979) 
-0.487302

>  <submitter_institution>  (979) 
nan

>  <ref_mols>  (979) 
5CMS_0_I,mArh-3ew5_B_0_B

>  <N_constrained_atoms>  (979) 
15.0

>  <ref_url>  (979) 
nan

>  <method>  (979) 
nan

>  <comRMSD>  (979) 
1.214887

>  <N_unconstrained_atoms>  (979) 
0.0

>  <∆∆G>  (979) 
-7.309523

>  <runtime>  (979) 
37.23263

>  <generation_date>  (979) 
nan

$$$$
mArh-5cms_O_14_O_β-4J4Z_0_A_α
     RDKit          3D

 22 22  0  0  0  0  0  0  0  0999 V2000
   -1.6000   20.4410   -8.1640 O   0  0  0  0  0  0  0  0  0  0  0  0
   -0.2410   19.7410   -7.7450 P   0  0  0  0  0  0  0  0  0  0  0  0
   -0.4300   18.9030   -6.4250 O   0  0  0  0  0  0  0  0  0  0  0  0
    0.9070   20.6730   -7.7030 O   0  0  0  0  0  0  0  0  0  0  0  0
   -0.0510   18.6460   -8.8820 O   0  0  0  0  0  0  0  0  0  0  0  0
   -1.6160   17.9590   -5.9420 P   0  0  2  0  0  0  0  0  0  0  0  0
   -0.7660   16.5880   -4.9800 C   0  0  0  0  0  0  0  0  0  0  0  0
   -2.6010   17.5320   -6.9630 O   0  0  0  0  0  0  0  0  0  0  0  0
   -2.2470   18.9580   -4.8520 O   0  0  0  0  0  0  0  0  0  0  0  0
   -0.0450   17.2110   -3.9360 O   0  0  0  0  0  0  0  0  0  0  0  0
    0.2640   16.1300   -5.8410 O   0  0  0  0  0  0  0  0  0  0  0  0
   -1.6910   15.4250   -4.5390 C   0  0  0  0  0  0  0  0  0  0  0  0
   -0.9570   14.2470   -3.8590 C   0  0  0  0  0  0  0  0  0  0  0  0
   -1.4720   12.9190   -4.2480 N   0  0  0  0  0  0  0  0  0  0  0  0
   -2.8200   12.6580   -3.7400 C   0  0  0  0  0  0  0  0  0  0  0  0
   -0.5860   11.8100   -3.7840 C   0  0  0  0  0  0  0  0  0  0  0  0
   -3.3510   11.3850   -4.4070 C   0  0  0  0  0  0  0  0  0  0  0  0
   -1.2800   10.4510   -3.4660 C   0  0  0  0  0  0  0  0  0  0  0  0
   -2.6180   10.1590   -4.0640 N   0  0  0  0  0  0  0  0  0  0  0  0
   -3.4650    9.3760   -3.1620 C   0  0  0  0  0  0  0  0  0  0  0  0
   -3.8190    7.9890   -3.6930 C   0  0  0  0  0  0  0  0  0  0  0  0
   -3.7590    7.0760   -2.6070 O   0  0  0  0  0  0  0  0  0  0  0  0
  1  2  1  0
  2  3  1  0
  2  4  2  0
  2  5  1  0
  3  6  1  0
  6  7  1  0
  6  8  2  0
  6  9  1  1
  7 10  1  0
  7 11  1  0
  7 12  1  0
 12 13  1  0
 13 14  1  0
 14 15  1  0
 14 16  1  0
 15 17  1  0
 16 18  1  0
 17 19  1  0
 18 19  1  0
 19 20  1  0
 20 21  1  0
 21 22  1  0
M  END
>  <%Rank>  (980) 
74.732824

>  <N_hits>  (980) 
2

>  <submitter_name>  (980) 
nan

>  <original SMILES>  (980) 
nan

>  <∆G_unbound>  (980) 
1.804282

>  <∆G_bound>  (980) 
-9.270993

>  <regarded>  (980) 
mArh-5cms_O_14_O_β,4J4Z_0_A_α

>  <ref_pdb>  (980) 
nan

>  <smiles>  (980) 
O=P(O)(O)OP(=O)(O)C(O)(O)CCN1CCN(CCO)CC1

>  <submitter_email>  (980) 
nan

>  <disregarded>  (980) 


>  <LE>  (980) 
-0.503422

>  <submitter_institution>  (980) 
nan

>  <ref_mols>  (980) 
mArh-5cms_O_14_O,4J4Z_0_A

>  <N_constrained_atoms>  (980) 
22.0

>  <ref_url>  (980) 
nan

>  <method>  (980) 
nan

>  <comRMSD>  (980) 
1.368693

>  <N_unconstrained_atoms>  (980) 
0.0

>  <∆∆G>  (980) 
-11.075275

>  <runtime>  (980) 
37.05347

>  <generation_date>  (980) 
nan

$$$$
5CMS_0_L_α-mArh-6woj_A_0_A_β
     RDKit          3D

 17 17  0  0  0  0  0  0  0  0999 V2000
   -1.5650   21.1240   -7.5790 C   0  0  0  0  0  0  0  0  0  0  0  0
   -0.0970   20.0730   -7.6440 P   0  0  2  0  0  0  0  0  0  0  0  0
   -0.0910   19.0780   -6.4010 O   0  0  0  0  0  0  0  0  0  0  0  0
   -2.3650   21.3900   -8.8400 C   0  0  1  0  0  0  0  0  0  0  0  0
    1.1650   20.8860   -7.6680 O   0  0  0  0  0  0  0  0  0  0  0  0
   -0.1810   18.9100   -8.7760 O   0  0  0  0  0  0  0  0  0  0  0  0
   -3.7590   21.1560   -8.6150 O   0  0  0  0  0  0  0  0  0  0  0  0
   -2.4910   22.7500   -9.4170 C   0  0  1  0  0  0  0  0  0  0  0  0
   -3.1390   22.5080  -10.6460 O   0  0  0  0  0  0  0  0  0  0  0  0
   -1.3440   18.3490   -5.7470 P   0  0  0  0  0  0  0  0  0  0  0  0
   -4.4580   22.3930   -8.4110 C   0  0  1  0  0  0  0  0  0  0  0  0
   -3.5550   23.5360   -8.8040 C   0  0  2  0  0  0  0  0  0  0  0  0
   -5.6230   22.4230   -9.1790 O   0  0  0  0  0  0  0  0  0  0  0  0
   -4.1690   24.2650   -9.8980 O   0  0  0  0  0  0  0  0  0  0  0  0
   -0.8390   16.8640   -5.4650 O   0  0  0  0  0  0  0  0  0  0  0  0
   -1.9190   19.0270   -4.5680 O   0  0  0  0  0  0  0  0  0  0  0  0
   -2.4060   18.1310   -6.9170 O   0  0  0  0  0  0  0  0  0  0  0  0
  1  2  1  0
  2  3  1  0
  4  1  1  1
  2  5  2  0
  2  6  1  6
  4  7  1  0
  4  8  1  0
  8  9  1  6
  3 10  1  0
  7 11  1  0
  8 12  1  0
 11 12  1  0
 11 13  1  6
 12 14  1  6
 10 15  1  0
 10 16  2  0
 10 17  1  0
M  END
>  <%Rank>  (981) 
74.80916

>  <N_hits>  (981) 
2

>  <submitter_name>  (981) 
nan

>  <original SMILES>  (981) 
nan

>  <∆G_unbound>  (981) 
1.703844

>  <∆G_bound>  (981) 
-8.550968

>  <regarded>  (981) 
5CMS_0_L_α,mArh-6woj_A_0_A_β

>  <ref_pdb>  (981) 
nan

>  <smiles>  (981) 
O=P(O)(O)OP(=O)(O)CC1OC(O)C(O)C1O

>  <submitter_email>  (981) 
nan

>  <disregarded>  (981) 


>  <LE>  (981) 
-0.603224

>  <submitter_institution>  (981) 
nan

>  <ref_mols>  (981) 
5CMS_0_L,mArh-6woj_A_0_A

>  <N_constrained_atoms>  (981) 
17.0

>  <ref_url>  (981) 
nan

>  <method>  (981) 
nan

>  <comRMSD>  (981) 
1.324547

>  <N_unconstrained_atoms>  (981) 
0.0

>  <∆∆G>  (981) 
-10.254812

>  <runtime>  (981) 
32.204112

>  <generation_date>  (981) 
nan

$$$$
6YWK_0_E_α-mArh-5dus_0_A_β
     RDKit          3D

 20 20  0  0  0  0  0  0  0  0999 V2000
    1.3740   20.7370   -7.2970 O   0  0  0  0  0  0  0  0  0  0  0  0
    0.1150   19.7100   -7.2080 S   0  0  2  0  0  0  0  0  0  0  0  0
    0.1410   18.5430   -6.1160 O   0  0  0  0  0  0  0  0  0  0  0  0
   -0.2500   19.2500   -8.6310 O   0  0  0  0  0  0  0  0  0  0  0  0
   -1.3550   20.7520   -6.9050 C   0  0  0  0  0  0  0  0  0  0  0  0
   -1.4090   22.0790   -7.7060 C   0  0  0  0  0  0  0  0  0  0  0  0
   -1.2450   20.4730   -8.6270 P   0  0  0  0  0  0  0  0  0  0  0  0
   -1.3020   17.9960   -5.6410 P   0  0  0  0  0  0  0  0  0  0  0  0
   -1.0230   16.6710   -4.8130 O   0  0  0  0  0  0  0  0  0  0  0  0
   -2.3340   17.7220   -6.6920 O   0  0  0  0  0  0  0  0  0  0  0  0
   -1.9300   18.9870   -4.5650 O   0  0  0  0  0  0  0  0  0  0  0  0
   -2.7750   22.5540   -8.0820 N   0  0  0  0  0  0  0  0  0  0  0  0
   -3.1820   23.7080   -7.2920 C   0  0  0  0  0  0  0  0  0  0  0  0
   -3.7970   21.4880   -8.2090 C   0  0  0  0  0  0  0  0  0  0  0  0
   -4.2760   23.3910   -6.2550 C   0  0  0  0  0  0  0  0  0  0  0  0
   -5.1380   21.5490   -7.4210 C   0  0  0  0  0  0  0  0  0  0  0  0
   -5.5100   22.8290   -6.8260 N   0  0  0  0  0  0  0  0  0  0  0  0
   -5.9620   23.7510   -7.8630 C   0  0  0  0  0  0  0  0  0  0  0  0
   -6.2780   23.1560   -9.2380 C   0  0  0  0  0  0  0  0  0  0  0  0
   -7.6180   22.6860   -9.3150 O   0  0  0  0  0  0  0  0  0  0  0  0
  2  1  1  6
  2  3  1  0
  2  4  1  0
  2  5  1  0
  5  6  1  0
  4  7  1  0
  3  8  1  0
  8  9  1  0
  8 10  2  0
  8 11  1  0
  6 12  1  0
 12 13  1  0
 12 14  1  0
 13 15  1  0
 14 16  1  0
 15 17  1  0
 16 17  1  0
 17 18  1  0
 18 19  1  0
 19 20  1  0
M  END
>  <%Rank>  (982) 
74.885496

>  <N_hits>  (982) 
2

>  <submitter_name>  (982) 
nan

>  <original SMILES>  (982) 
nan

>  <∆G_unbound>  (982) 
1.153749

>  <∆G_bound>  (982) 
-5.536882

>  <regarded>  (982) 
6YWK_0_E_α,mArh-5dus_0_A_β

>  <ref_pdb>  (982) 
nan

>  <smiles>  (982) 
O=P(O)(O)OS(O)(CCN1CCN(CCO)CC1)OP

>  <submitter_email>  (982) 
nan

>  <disregarded>  (982) 


>  <LE>  (982) 
-0.334532

>  <submitter_institution>  (982) 
nan

>  <ref_mols>  (982) 
6YWK_0_E,mArh-5dus_0_A

>  <N_constrained_atoms>  (982) 
20.0

>  <ref_url>  (982) 
nan

>  <method>  (982) 
nan

>  <comRMSD>  (982) 
1.251775

>  <N_unconstrained_atoms>  (982) 
0.0

>  <∆∆G>  (982) 
-6.690631

>  <runtime>  (982) 
47.19891

>  <generation_date>  (982) 
nan

$$$$
6WOJ_0_D_δ-mArh-5mqx_0_A_β
     RDKit          3D

 19 20  0  0  0  0  0  0  0  0999 V2000
   -3.8320   15.2870    1.6420 N   0  0  0  0  0  0  0  0  0  0  0  0
   -2.7640   14.4260    1.1770 C   0  0  1  0  0  0  0  0  0  0  0  0
   -2.8740   14.0360   -0.3040 C   0  0  2  0  0  0  0  0  0  0  0  0
   -1.5740   15.1540    1.4950 N   0  0  0  0  0  0  0  0  0  0  0  0
   -1.4940   13.9090   -1.0070 C   0  0  1  0  0  0  0  0  0  0  0  0
   -3.7340   14.8370   -1.1950 N   0  0  0  0  0  0  0  0  0  0  0  0
   -0.4190   14.3650    1.1540 C   0  0  0  0  0  0  0  0  0  0  0  0
   -1.6430   14.7220   -2.1980 N   0  0  0  0  0  0  0  0  0  0  0  0
   -3.0640   14.6890   -2.4720 C   0  0  2  0  0  0  0  0  0  0  0  0
   -0.2910   14.3080   -0.2930 N   0  0  0  0  0  0  0  0  0  0  0  0
   -3.4980   15.7490   -3.3150 N   0  0  0  0  0  0  0  0  0  0  0  0
   -2.7750   16.1900   -4.7450 P   0  0  0  0  0  0  0  0  0  0  0  0
   -2.0150   17.6120   -4.6830 O   0  0  0  0  0  0  0  0  0  0  0  0
   -1.6840   15.0780   -5.0410 O   0  0  0  0  0  0  0  0  0  0  0  0
   -3.8130   16.1030   -5.9390 O   0  0  0  0  0  0  0  0  0  0  0  0
   -2.1650   19.0290   -5.4510 P   0  0  0  0  0  0  0  0  0  0  0  0
   -2.8080   18.5540   -6.8360 O   0  0  0  0  0  0  0  0  0  0  0  0
   -2.9400   20.0970   -4.6910 O   0  0  0  0  0  0  0  0  0  0  0  0
   -0.6800   19.3820   -5.7760 O   0  0  0  0  0  0  0  0  0  0  0  0
  2  1  1  6
  2  3  1  0
  2  4  1  0
  3  5  1  0
  3  6  1  6
  4  7  1  0
  5  8  1  6
  6  9  1  0
  8  9  1  0
  5 10  1  0
  7 10  1  0
  9 11  1  6
 11 12  2  3
 12 13  1  0
 12 14  1  0
 12 15  1  0
 13 16  1  0
 16 17  1  0
 16 18  2  0
 16 19  1  0
M  END
>  <%Rank>  (983) 
74.961832

>  <N_hits>  (983) 
2

>  <submitter_name>  (983) 
nan

>  <original SMILES>  (983) 
nan

>  <∆G_unbound>  (983) 
3.030679

>  <∆G_bound>  (983) 
-3.717449

>  <regarded>  (983) 
6WOJ_0_D_δ,mArh-5mqx_0_A_β

>  <ref_pdb>  (983) 
nan

>  <smiles>  (983) 
NC1NCNC2NC(N=P(O)(O)OP(=O)(O)O)NC12

>  <submitter_email>  (983) 
nan

>  <disregarded>  (983) 


>  <LE>  (983) 
-0.355165

>  <submitter_institution>  (983) 
nan

>  <ref_mols>  (983) 
6WOJ_0_D,mArh-5mqx_0_A

>  <N_constrained_atoms>  (983) 
19.0

>  <ref_url>  (983) 
nan

>  <method>  (983) 
nan

>  <comRMSD>  (983) 
1.242941

>  <N_unconstrained_atoms>  (983) 
0.0

>  <∆∆G>  (983) 
-6.748127

>  <runtime>  (983) 
28.84515

>  <generation_date>  (983) 
nan

$$$$
mArh-5cms_L_11_L_β-mArh-5cms_J_9_J_α
     RDKit          3D

 19 19  0  0  0  0  0  0  0  0999 V2000
   -1.2300   20.3050   -8.8570 O   0  0  0  0  0  0  0  0  0  0  0  0
   -0.3870   19.4790   -7.8370 P   0  0  0  0  0  0  0  0  0  0  0  0
   -1.3300   19.2070   -6.6340 O   0  0  0  0  0  0  0  0  0  0  0  0
    0.8780   20.3900   -7.3620 N   0  0  0  0  0  0  0  0  0  0  0  0
   -0.0190   18.2370   -8.6870 O   0  0  0  0  0  0  0  0  0  0  0  0
   -1.7740   17.8640   -5.9690 P   0  0  0  0  0  0  0  0  0  0  0  0
    0.9210   21.5430   -8.1890 C   0  0  0  0  0  0  0  0  0  0  0  0
   -0.4440   17.0030   -5.8450 O   0  0  0  0  0  0  0  0  0  0  0  0
   -2.8950   17.1810   -6.6440 O   0  0  0  0  0  0  0  0  0  0  0  0
   -1.9850   18.2820   -4.4730 O   0  0  0  0  0  0  0  0  0  0  0  0
   -0.0790   22.6540   -7.9470 C   0  0  0  0  0  0  0  0  0  0  0  0
   -1.5540   22.4530   -8.3370 C   0  0  2  0  0  0  0  0  0  0  0  0
   -1.8070   21.6950   -9.5340 O   0  0  0  0  0  0  0  0  0  0  0  0
   -2.2460   23.7620   -8.5970 C   0  0  1  0  0  0  0  0  0  0  0  0
   -1.3990   24.6680   -9.2070 O   0  0  0  0  0  0  0  0  0  0  0  0
   -3.1820   21.9810   -9.7980 C   0  0  2  0  0  0  0  0  0  0  0  0
   -3.4470   23.4180   -9.4740 C   0  0  2  0  0  0  0  0  0  0  0  0
   -3.9830   21.2570   -8.9060 O   0  0  0  0  0  0  0  0  0  0  0  0
   -3.6660   24.2400  -10.6270 O   0  0  0  0  0  0  0  0  0  0  0  0
  1  2  1  0
  2  3  1  0
  2  4  2  3
  2  5  1  0
  3  6  1  0
  4  7  1  0
  6  8  1  0
  6  9  2  0
  6 10  1  0
  7 11  1  0
 12 11  1  6
 12 13  1  0
 12 14  1  0
 14 15  1  6
 13 16  1  0
 14 17  1  0
 16 17  1  0
 16 18  1  1
 17 19  1  6
M  END
>  <%Rank>  (984) 
75.038168

>  <N_hits>  (984) 
2

>  <submitter_name>  (984) 
nan

>  <original SMILES>  (984) 
nan

>  <∆G_unbound>  (984) 
1.1668

>  <∆G_bound>  (984) 
-4.276188

>  <regarded>  (984) 
mArh-5cms_L_11_L_β,mArh-5cms_J_9_J_α

>  <ref_pdb>  (984) 
nan

>  <smiles>  (984) 
O=P(O)(O)OP(O)(O)=NCCC1OC(O)C(O)C1O

>  <submitter_email>  (984) 
nan

>  <disregarded>  (984) 


>  <LE>  (984) 
-0.286473

>  <submitter_institution>  (984) 
nan

>  <ref_mols>  (984) 
mArh-5cms_L_11_L,mArh-5cms_J_9_J

>  <N_constrained_atoms>  (984) 
18.0

>  <ref_url>  (984) 
nan

>  <method>  (984) 
nan

>  <comRMSD>  (984) 
1.162652

>  <N_unconstrained_atoms>  (984) 
1.0

>  <∆∆G>  (984) 
-5.442988

>  <runtime>  (984) 
42.349758

>  <generation_date>  (984) 
nan

$$$$
mArh-5cb5_O_0_O_β-5CMS_0_Q_α
     RDKit          3D

 17 17  0  0  0  0  0  0  0  0999 V2000
   -1.7070   20.5740   -7.8740 O   0  0  0  0  0  0  0  0  0  0  0  0
   -0.2580   19.9120   -7.7770 P   0  0  2  0  0  0  0  0  0  0  0  0
   -0.2440   19.0420   -6.4570 O   0  0  0  0  0  0  0  0  0  0  0  0
   -2.0700   21.4790   -8.8820 C   0  0  1  0  0  0  0  0  0  0  0  0
    0.8830   20.8750   -7.8430 O   0  0  0  0  0  0  0  0  0  0  0  0
   -0.1540   18.7200   -8.8470 O   0  0  0  0  0  0  0  0  0  0  0  0
   -3.4570   21.3200   -9.1380 O   0  0  0  0  0  0  0  0  0  0  0  0
   -1.9830   22.9770   -8.5560 C   0  0  1  0  0  0  0  0  0  0  0  0
   -1.5570   18.2450   -6.0500 P   0  0  0  0  0  0  0  0  0  0  0  0
   -0.6870   23.5150   -8.7790 O   0  0  0  0  0  0  0  0  0  0  0  0
   -3.6890   22.2810  -10.0990 C   0  0  2  0  0  0  0  0  0  0  0  0
   -3.1890   23.5130   -9.4040 C   0  0  2  0  0  0  0  0  0  0  0  0
   -1.0370   16.9820   -5.2420 O   0  0  0  0  0  0  0  0  0  0  0  0
   -2.5310   17.9330   -7.1070 O   0  0  0  0  0  0  0  0  0  0  0  0
   -2.1640   19.1800   -4.9180 O   0  0  0  0  0  0  0  0  0  0  0  0
   -5.0600   22.4060  -10.3910 O   0  0  0  0  0  0  0  0  0  0  0  0
   -2.9710   24.4120  -10.4600 O   0  0  0  0  0  0  0  0  0  0  0  0
  1  2  1  0
  2  3  1  0
  4  1  1  1
  2  5  2  0
  2  6  1  6
  4  7  1  0
  4  8  1  0
  3  9  1  0
  8 10  1  6
  7 11  1  0
  8 12  1  0
 11 12  1  0
  9 13  1  0
  9 14  2  0
  9 15  1  0
 11 16  1  1
 12 17  1  6
M  END
>  <%Rank>  (985) 
75.114504

>  <N_hits>  (985) 
2

>  <submitter_name>  (985) 
nan

>  <original SMILES>  (985) 
nan

>  <∆G_unbound>  (985) 
1.974322

>  <∆G_bound>  (985) 
-5.939983

>  <regarded>  (985) 
mArh-5cb5_O_0_O_β,5CMS_0_Q_α

>  <ref_pdb>  (985) 
nan

>  <smiles>  (985) 
O=P(O)(O)OP(=O)(O)OC1OC(O)C(O)C1O

>  <submitter_email>  (985) 
nan

>  <disregarded>  (985) 


>  <LE>  (985) 
-0.465547

>  <submitter_institution>  (985) 
nan

>  <ref_mols>  (985) 
mArh-5cb5_O_0_O,5CMS_0_Q

>  <N_constrained_atoms>  (985) 
17.0

>  <ref_url>  (985) 
nan

>  <method>  (985) 
nan

>  <comRMSD>  (985) 
1.26341

>  <N_unconstrained_atoms>  (985) 
0.0

>  <∆∆G>  (985) 
-7.914305

>  <runtime>  (985) 
34.352852

>  <generation_date>  (985) 
nan

$$$$
mArh-x0524_0_A_α-mArh-x0253_0_A_α
     RDKit          3D

 30 32  0  0  0  0  0  0  0  0999 V2000
   -0.4700    7.6630   -8.0960 N   0  0  0  0  0  0  0  0  0  0  0  0
   -1.8510    7.8780   -8.0210 C   0  0  0  0  0  0  0  0  0  0  0  0
   -2.2520    9.0950   -7.2920 C   0  0  0  0  0  0  0  0  0  0  0  0
    0.4800    7.9730   -9.1310 C   0  0  0  0  0  0  0  0  0  0  0  0
   -2.6990    7.2230   -8.5050 O   0  0  0  0  0  0  0  0  0  0  0  0
    1.7590    7.4840   -8.9080 C   0  0  0  0  0  0  0  0  0  0  0  0
    0.2740    8.6930  -10.3200 C   0  0  0  0  0  0  0  0  0  0  0  0
    2.8050    7.7000   -9.8170 C   0  0  0  0  0  0  0  0  0  0  0  0
    1.3290    8.9120  -11.2370 C   0  0  0  0  0  0  0  0  0  0  0  0
   -1.1640    9.8470   -7.8360 C   0  0  0  0  0  0  0  0  0  0  0  0
    2.6150    8.4150  -10.9980 C   0  0  0  0  0  0  0  0  0  0  0  0
   -0.3630   10.5370   -7.0120 C   0  0  0  0  0  0  0  0  0  0  0  0
   -0.9790    9.7970   -9.2140 C   0  0  0  0  0  0  0  0  0  0  0  0
    3.6600    8.6300  -11.9190 N   0  0  0  0  0  0  0  0  0  0  0  0
    0.6900   11.2140   -7.5290 C   0  0  0  0  0  0  0  0  0  0  0  0
    0.0820   10.4650   -9.7640 C   0  0  0  0  0  0  0  0  0  0  0  0
    1.4320   11.9210   -6.4670 C   0  0  0  0  0  0  0  0  0  0  0  0
    3.8800    9.5420  -12.9730 C   0  0  0  0  0  0  0  0  0  0  0  0
    0.9180   11.1580   -8.9320 C   0  0  0  0  0  0  0  0  0  0  0  0
    0.6890   12.2410   -5.3640 N   0  0  0  0  0  0  0  0  0  0  0  0
    2.5960   12.2030   -6.5030 O   0  0  0  0  0  0  0  0  0  0  0  0
    3.1160   10.6930  -13.2040 C   0  0  0  0  0  0  0  0  0  0  0  0
    4.9450    9.2750  -13.8470 C   0  0  0  0  0  0  0  0  0  0  0  0
    1.3540   12.9110   -4.2700 C   0  0  0  0  0  0  0  0  0  0  0  0
    3.4100   11.5470  -14.2730 C   0  0  0  0  0  0  0  0  0  0  0  0
    5.2400   10.1240  -14.9130 C   0  0  0  0  0  0  0  0  0  0  0  0
    0.9070   12.3350   -2.9420 C   0  0  0  0  0  0  0  0  0  0  0  0
    4.4720   11.2630  -15.1260 C   0  0  0  0  0  0  0  0  0  0  0  0
    1.2480   12.7410   -1.8480 O   0  0  0  0  0  0  0  0  0  0  0  0
    0.0640   11.2890   -3.0440 O   0  0  0  0  0  0  0  0  0  0  0  0
  1  2  1  0
  2  3  1  0
  1  4  1  0
  2  5  2  0
  4  6  2  0
  4  7  1  0
  6  8  1  0
  7  9  2  0
  3 10  1  0
  8 11  2  0
  9 11  1  0
 10 12  2  0
 10 13  1  0
 11 14  1  0
 12 15  1  0
 13 16  2  0
 15 17  1  0
 14 18  1  0
 15 19  2  0
 16 19  1  0
 17 20  1  0
 17 21  2  0
 18 22  2  0
 18 23  1  0
 20 24  1  0
 22 25  1  0
 23 26  2  0
 24 27  1  0
 25 28  2  0
 26 28  1  0
 27 29  2  0
 27 30  1  0
M  END
>  <%Rank>  (986) 
75.19084

>  <N_hits>  (986) 
2

>  <submitter_name>  (986) 
nan

>  <original SMILES>  (986) 
nan

>  <∆G_unbound>  (986) 
0.382572

>  <∆G_bound>  (986) 
-3.495947

>  <regarded>  (986) 
mArh-x0524_0_A_α,mArh-x0253_0_A_α

>  <ref_pdb>  (986) 
nan

>  <smiles>  (986) 
O=C(O)CNC(=O)c1cccc(CC(=O)Nc2ccc(Nc3ccccc3)cc2)c1

>  <submitter_email>  (986) 
nan

>  <disregarded>  (986) 


>  <LE>  (986) 
-0.129284

>  <submitter_institution>  (986) 
nan

>  <ref_mols>  (986) 
mArh-x0524_0_A,mArh-x0253_0_A

>  <N_constrained_atoms>  (986) 
30.0

>  <ref_url>  (986) 
nan

>  <method>  (986) 
nan

>  <comRMSD>  (986) 
1.30793

>  <N_unconstrained_atoms>  (986) 
0.0

>  <∆∆G>  (986) 
-3.878518

>  <runtime>  (986) 
51.78597

>  <generation_date>  (986) 
nan

$$$$
mArh-5lw0_B_1_B_α-5CMS_0_E_γ
     RDKit          3D

 22 23  0  0  0  0  0  0  0  0999 V2000
   -2.6420   21.5250   -9.0370 C   0  0  0  0  0  0  0  0  0  0  0  0
   -3.6190   22.4810   -8.4000 C   0  0  2  0  0  0  0  0  0  0  0  0
   -3.8060   21.9850   -7.0800 O   0  0  0  0  0  0  0  0  0  0  0  0
   -4.9990   22.7230   -9.0140 C   0  0  1  0  0  0  0  0  0  0  0  0
   -5.2340   22.0920  -10.2630 O   0  0  0  0  0  0  0  0  0  0  0  0
   -5.1550   21.7400   -6.7920 C   0  0  1  0  0  0  0  0  0  0  0  0
   -5.9920   22.2410   -7.9690 C   0  0  2  0  0  0  0  0  0  0  0  0
   -5.2240   20.3660   -6.6220 O   0  0  0  0  0  0  0  0  0  0  0  0
   -6.9660   21.3060   -8.4470 O   0  0  0  0  0  0  0  0  0  0  0  0
   -3.8700   19.9150   -6.8790 C   0  0  0  0  0  0  0  0  0  0  0  0
   -2.7380   20.2910   -5.9150 C   0  0  0  0  0  0  0  0  0  0  0  0
   -1.5380   19.3380   -6.1430 C   0  0  0  0  0  0  0  0  0  0  0  0
   -1.2660   18.4620   -4.9230 C   0  0  0  0  0  0  0  0  0  0  0  0
    0.1920   17.9820   -4.7560 C   0  0  0  0  0  0  0  0  0  0  0  0
    0.4350   16.6270   -5.4090 C   0  0  0  0  0  0  0  0  0  0  0  0
    0.6970   15.4340   -4.4730 C   0  0  1  0  0  0  0  0  0  0  0  0
   -0.0930   15.6090   -3.2690 O   0  0  0  0  0  0  0  0  0  0  0  0
    0.3100   14.0480   -5.0470 C   0  0  1  0  0  0  0  0  0  0  0  0
    1.2810   13.0260   -4.9210 O   0  0  0  0  0  0  0  0  0  0  0  0
   -0.7600   14.3780   -2.9780 C   0  0  0  0  0  0  0  0  0  0  0  0
   -0.9660   13.6780   -4.3010 C   0  0  2  0  0  0  0  0  0  0  0  0
   -1.0980   12.2650   -4.1860 O   0  0  0  0  0  0  0  0  0  0  0  0
  2  1  1  6
  2  3  1  0
  2  4  1  0
  4  5  1  6
  3  6  1  0
  4  7  1  0
  6  7  1  0
  6  8  1  6
  7  9  1  6
  8 10  1  0
 10 11  1  0
 11 12  1  0
 12 13  1  0
 13 14  1  0
 14 15  1  0
 16 15  1  6
 16 17  1  0
 16 18  1  0
 18 19  1  1
 17 20  1  0
 18 21  1  0
 20 21  1  0
 21 22  1  1
M  END
>  <%Rank>  (987) 
75.267176

>  <N_hits>  (987) 
2

>  <submitter_name>  (987) 
nan

>  <original SMILES>  (987) 
nan

>  <∆G_unbound>  (987) 
0.187336

>  <∆G_bound>  (987) 
-7.987567

>  <regarded>  (987) 
mArh-5lw0_B_1_B_α,5CMS_0_E_γ

>  <ref_pdb>  (987) 
nan

>  <smiles>  (987) 
CC1OC(OCCCCCCC2OCC(O)C2O)C(O)C1O

>  <submitter_email>  (987) 
nan

>  <disregarded>  (987) 


>  <LE>  (987) 
-0.371586

>  <submitter_institution>  (987) 
nan

>  <ref_mols>  (987) 
mArh-5lw0_B_1_B,5CMS_0_E

>  <N_constrained_atoms>  (987) 
17.0

>  <ref_url>  (987) 
nan

>  <method>  (987) 
nan

>  <comRMSD>  (987) 
1.081963

>  <N_unconstrained_atoms>  (987) 
5.0

>  <∆∆G>  (987) 
-8.174903

>  <runtime>  (987) 
32.890152

>  <generation_date>  (987) 
nan

$$$$
3VFQ_0_A_β-mArh-x0587_0_A_α
     RDKit          3D

 23 23  0  0  0  0  0  0  0  0999 V2000
   -2.0350   18.3960   -7.4520 O   0  0  0  0  0  0  0  0  0  0  0  0
   -2.2280   17.7300   -5.9780 P   0  0  0  0  0  0  0  0  0  0  0  0
   -3.5580   17.1380   -6.4650 O   0  0  0  0  0  0  0  0  0  0  0  0
   -0.8850   18.3580   -5.5970 O   0  0  0  0  0  0  0  0  0  0  0  0
   -1.7570   16.2140   -5.6670 O   0  0  0  0  0  0  0  0  0  0  0  0
   -4.1300   15.6240   -6.1770 P   0  0  0  0  0  0  0  0  0  0  0  0
   -4.3960   14.9840   -4.6990 O   0  0  0  0  0  0  0  0  0  0  0  0
   -5.5790   16.0460   -6.3700 O   0  0  0  0  0  0  0  0  0  0  0  0
   -4.4720   14.6830   -7.5350 O   0  0  0  0  0  0  0  0  0  0  0  0
   -3.7690   15.3690   -3.5640 C   0  0  0  0  0  0  0  0  0  0  0  0
   -4.5840   15.5230   -2.4790 O   0  0  0  0  0  0  0  0  0  0  0  0
   -4.5380   14.6380   -1.4630 C   0  0  0  0  0  0  0  0  0  0  0  0
   -3.2550   14.6740   -0.9070 F   0  0  0  0  0  0  0  0  0  0  0  0
   -4.6430   13.3860   -2.0720 F   0  0  0  0  0  0  0  0  0  0  0  0
   -5.5280   14.6770   -0.3990 C   0  0  0  0  0  0  0  0  0  0  0  0
   -6.8360   14.4670   -0.6290 N   0  0  0  0  0  0  0  0  0  0  0  0
   -5.1500   14.9310    0.8560 N   0  0  0  0  0  0  0  0  0  0  0  0
   -7.7890   14.5070    0.3350 C   0  0  0  0  0  0  0  0  0  0  0  0
   -6.0500   14.9840    1.8330 C   0  0  0  0  0  0  0  0  0  0  0  0
   -7.3970   14.7810    1.6350 C   0  0  0  0  0  0  0  0  0  0  0  0
   -8.3320   14.8680    2.7390 C   0  0  0  0  0  0  0  0  0  0  0  0
   -7.8880   15.0580    4.0620 N   0  0  0  0  0  0  0  0  0  0  0  0
   -9.5520   14.7970    2.5100 O   0  0  0  0  0  0  0  0  0  0  0  0
  1  2  1  0
  2  3  1  0
  2  4  1  0
  2  5  1  0
  3  6  1  0
  6  7  1  0
  6  8  1  0
  6  9  1  0
  7 10  1  0
 10 11  1  0
 11 12  1  0
 12 13  1  0
 12 14  1  0
 12 15  1  0
 15 16  2  0
 15 17  1  0
 16 18  1  0
 17 19  2  0
 18 20  2  0
 19 20  1  0
 20 21  1  0
 21 22  1  0
 21 23  2  0
M  CHG  2   4  -1   8  -1
M  END
>  <%Rank>  (988) 
75.343511

>  <N_hits>  (988) 
2

>  <submitter_name>  (988) 
nan

>  <original SMILES>  (988) 
nan

>  <∆G_unbound>  (988) 
6.870571

>  <∆G_bound>  (988) 
0.648701

>  <regarded>  (988) 
3VFQ_0_A_β,mArh-x0587_0_A_α

>  <ref_pdb>  (988) 
nan

>  <smiles>  (988) 
NC(=O)c1cnc(C(F)(F)OCO[PH]([O-])(O)O[PH]([O-])(O)O)nc1

>  <submitter_email>  (988) 
nan

>  <disregarded>  (988) 


>  <LE>  (988) 
-0.270516

>  <submitter_institution>  (988) 
nan

>  <ref_mols>  (988) 
3VFQ_0_A,mArh-x0587_0_A

>  <N_constrained_atoms>  (988) 
22.0

>  <ref_url>  (988) 
nan

>  <method>  (988) 
nan

>  <comRMSD>  (988) 
1.256902

>  <N_unconstrained_atoms>  (988) 
1.0

>  <∆∆G>  (988) 
-6.22187

>  <runtime>  (988) 
32.116807

>  <generation_date>  (988) 
nan

$$$$
mArh-x0933_3_B_α-mArh-6ywk_C_0_C_α
     RDKit          3D

 29 30  0  0  0  0  0  0  0  0999 V2000
    0.6710   34.2470   10.8550 N   0  0  0  0  0  0  0  0  0  0  0  0
    0.1580   34.8080    9.6550 C   0  0  1  0  0  0  0  0  0  0  0  0
    0.1130   36.2180    9.7730 N   0  0  0  0  0  0  0  0  0  0  0  0
    0.9030   34.3910    8.5130 N   0  0  0  0  0  0  0  0  0  0  0  0
    1.3210   35.4110    7.5540 C   0  0  0  0  0  0  0  0  0  0  0  0
   -0.4200   36.8870    8.5810 C   0  0  0  0  0  0  0  0  0  0  0  0
    0.3200   36.5330    7.2730 C   0  0  1  0  0  0  0  0  0  0  0  0
    1.0470   37.7670    6.6760 C   0  0  0  0  0  0  0  0  0  0  0  0
    0.3240   38.5530    5.5640 C   0  0  0  0  0  0  0  0  0  0  0  0
    0.4340   38.0380    4.1280 C   0  0  0  0  0  0  0  0  0  0  0  0
    1.7430   38.3840    3.3880 C   0  0  0  0  0  0  0  0  0  0  0  0
    1.7140   38.0880    1.8740 C   0  0  0  0  0  0  0  0  0  0  0  0
    3.0410   38.2410    1.1030 C   0  0  0  0  0  0  0  0  0  0  0  0
    3.5770   39.6670    0.8280 C   0  0  0  0  0  0  0  0  0  0  0  0
    3.6540   40.1630   -0.6550 C   0  0  1  0  0  0  0  0  0  0  0  0
    3.7500   41.7160   -0.6880 C   0  0  0  0  0  0  0  0  0  0  0  0
    4.7190   39.5000   -1.4520 N   0  0  0  0  0  0  0  0  0  0  0  0
    2.5850   42.3700   -0.2040 O   0  0  0  0  0  0  0  0  0  0  0  0
    4.5110   38.0760   -1.7740 C   0  0  0  0  0  0  0  0  0  0  0  0
    5.0760   40.2620   -2.6650 C   0  0  0  0  0  0  0  0  0  0  0  0
    4.6410   37.7940   -3.2870 C   0  0  0  0  0  0  0  0  0  0  0  0
    6.2370   39.6100   -3.4510 C   0  0  0  0  0  0  0  0  0  0  0  0
    5.9310   38.2270   -3.8910 N   0  0  0  0  0  0  0  0  0  0  0  0
    5.8170   38.1410   -5.3600 C   0  0  0  0  0  0  0  0  0  0  0  0
    5.1450   36.8690   -5.8510 C   0  0  0  0  0  0  0  0  0  0  0  0
    6.1820   35.7980   -6.8330 S   0  0  0  0  0  0  0  0  0  0  0  0
    6.5660   36.4880   -8.0410 O   0  0  0  0  0  0  0  0  0  0  0  0
    7.1420   35.1540   -5.9650 O   0  0  0  0  0  0  0  0  0  0  0  0
    5.1010   34.6960   -7.2600 O   0  0  0  0  0  0  0  0  0  0  0  0
  2  1  1  1
  2  3  1  0
  2  4  1  0
  4  5  1  0
  3  6  1  0
  5  7  1  0
  6  7  1  0
  7  8  1  1
  8  9  1  0
  9 10  1  0
 10 11  1  0
 11 12  1  0
 12 13  1  0
 13 14  1  0
 15 14  1  1
 15 16  1  0
 15 17  1  0
 16 18  1  0
 17 19  1  0
 17 20  1  0
 19 21  1  0
 20 22  1  0
 21 23  1  0
 22 23  1  0
 23 24  1  0
 24 25  1  0
 25 26  1  0
 26 27  2  0
 26 28  2  0
 26 29  1  0
M  END
>  <%Rank>  (989) 
75.419847

>  <N_hits>  (989) 
2

>  <submitter_name>  (989) 
nan

>  <original SMILES>  (989) 
nan

>  <∆G_unbound>  (989) 
0.929845

>  <∆G_bound>  (989) 
-7.444046

>  <regarded>  (989) 
mArh-x0933_3_B_α,mArh-6ywk_C_0_C_α

>  <ref_pdb>  (989) 
nan

>  <smiles>  (989) 
NC1NCC(CCCCCCCC(CO)N2CCN(CCS(=O)(=O)O)CC2)CN1

>  <submitter_email>  (989) 
nan

>  <disregarded>  (989) 


>  <LE>  (989) 
-0.288755

>  <submitter_institution>  (989) 
nan

>  <ref_mols>  (989) 
mArh-x0933_3_B,mArh-6ywk_C_0_C

>  <N_constrained_atoms>  (989) 
22.0

>  <ref_url>  (989) 
nan

>  <method>  (989) 
nan

>  <comRMSD>  (989) 
1.135629

>  <N_unconstrained_atoms>  (989) 
7.0

>  <∆∆G>  (989) 
-8.373891

>  <runtime>  (989) 
41.276593

>  <generation_date>  (989) 
nan

$$$$
mArh-4j4z_0_A_α-mArh-EU0860_0_A_α
     RDKit          3D

 25 26  0  0  0  0  0  0  0  0999 V2000
   -0.3140   17.0850   -3.3960 O   0  0  0  0  0  0  0  0  0  0  0  0
   -0.8980   16.7010   -4.6570 S   0  0  0  0  0  0  0  0  0  0  0  0
   -0.1140   16.6460   -5.8640 O   0  0  0  0  0  0  0  0  0  0  0  0
   -2.0970   17.7620   -4.9080 O   0  0  0  0  0  0  0  0  0  0  0  0
   -1.8530   15.1980   -4.4850 C   0  0  0  0  0  0  0  0  0  0  0  0
   -0.9640   14.0610   -3.9850 C   0  0  0  0  0  0  0  0  0  0  0  0
   -1.5650   12.7450   -4.1690 N   0  0  0  0  0  0  0  0  0  0  0  0
   -2.7090   12.4700   -3.2940 C   0  0  0  0  0  0  0  0  0  0  0  0
   -0.5870   11.6510   -4.1020 C   0  0  0  0  0  0  0  0  0  0  0  0
   -3.4290   11.1680   -3.7040 C   0  0  0  0  0  0  0  0  0  0  0  0
   -1.1220   10.3010   -3.5450 C   0  0  0  0  0  0  0  0  0  0  0  0
   -2.5780    9.9630   -3.6040 N   0  0  0  0  0  0  0  0  0  0  0  0
   -3.0440    8.8300   -4.4730 C   0  0  1  0  0  0  0  0  0  0  0  0
   -4.0420    7.8090   -3.8780 C   0  0  0  0  0  0  0  0  0  0  0  0
   -3.6520    9.4510   -5.7610 C   0  0  0  0  0  0  0  0  0  0  0  0
   -3.6860    7.3450   -2.5810 O   0  0  0  0  0  0  0  0  0  0  0  0
   -2.6140    9.9100   -6.7780 C   0  0  0  0  0  0  0  0  0  0  0  0
   -1.3510    9.0540   -6.7430 C   0  0  0  0  0  0  0  0  0  0  0  0
   -0.4200    9.4430   -7.7730 N   0  0  0  0  0  0  0  0  0  0  0  0
    0.2920    8.6210   -8.5950 C   0  0  0  0  0  0  0  0  0  0  0  0
   -0.1890   10.7500   -7.9940 N   0  0  0  0  0  0  0  0  0  0  0  0
    1.0310    9.4480   -9.4100 C   0  0  0  0  0  0  0  0  0  0  0  0
    0.6900   10.7390   -8.9910 C   0  0  0  0  0  0  0  0  0  0  0  0
    1.9410    9.0700  -10.4560 C   0  0  0  0  0  0  0  0  0  0  0  0
    2.4230    7.9510  -10.5640 O   0  0  0  0  0  0  0  0  0  0  0  0
  1  2  2  0
  2  3  2  0
  2  4  1  0
  2  5  1  0
  5  6  1  0
  6  7  1  0
  7  8  1  0
  7  9  1  0
  8 10  1  0
  9 11  1  0
 10 12  1  0
 11 12  1  0
 12 13  1  0
 13 14  1  1
 13 15  1  0
 14 16  1  0
 15 17  1  0
 17 18  1  0
 18 19  1  0
 19 20  1  0
 19 21  1  0
 20 22  2  0
 21 23  2  0
 22 23  1  0
 22 24  1  0
 24 25  2  0
M  END
>  <%Rank>  (990) 
75.496183

>  <N_hits>  (990) 
2

>  <submitter_name>  (990) 
nan

>  <original SMILES>  (990) 
nan

>  <∆G_unbound>  (990) 
1.701191

>  <∆G_bound>  (990) 
-3.798958

>  <regarded>  (990) 
mArh-4j4z_0_A_α,mArh-EU0860_0_A_α

>  <ref_pdb>  (990) 
nan

>  <smiles>  (990) 
O=Cc1cnn(CCCC(CO)N2CCN(CCS(=O)(=O)O)CC2)c1

>  <submitter_email>  (990) 
nan

>  <disregarded>  (990) 


>  <LE>  (990) 
-0.220006

>  <submitter_institution>  (990) 
nan

>  <ref_mols>  (990) 
mArh-4j4z_0_A,mArh-EU0860_0_A

>  <N_constrained_atoms>  (990) 
23.0

>  <ref_url>  (990) 
nan

>  <method>  (990) 
nan

>  <comRMSD>  (990) 
1.235995

>  <N_unconstrained_atoms>  (990) 
2.0

>  <∆∆G>  (990) 
-5.500149

>  <runtime>  (990) 
33.760894

>  <generation_date>  (990) 
nan

$$$$
1HJZ_0_B_α-5LW0_0_A_α
     RDKit          3D

 20 21  0  0  0  0  0  0  0  0999 V2000
    0.3440   21.0250   -7.7020 O   0  0  0  0  0  0  0  0  0  0  0  0
   -1.1050   20.3500   -7.5510 S   0  0  0  0  0  0  0  0  0  0  0  0
   -1.0330   18.9020   -8.2480 O   0  0  0  0  0  0  0  0  0  0  0  0
   -1.4900   20.3000   -5.9980 O   0  0  0  0  0  0  0  0  0  0  0  0
   -2.2550   21.4700   -8.3750 C   0  0  2  0  0  0  0  0  0  0  0  0
   -1.8200   22.8800   -7.9670 C   0  0  0  0  0  0  0  0  0  0  0  0
   -3.7590   21.5130   -8.0570 C   0  0  2  0  0  0  0  0  0  0  0  0
   -2.9090   23.8730   -8.1430 N   0  0  0  0  0  0  0  0  0  0  0  0
   -4.4660   20.4180   -7.4700 O   0  0  0  0  0  0  0  0  0  0  0  0
   -4.6970   22.1230   -9.1040 C   0  0  1  0  0  0  0  0  0  0  0  0
   -4.3960   21.9050  -10.4860 O   0  0  0  0  0  0  0  0  0  0  0  0
   -3.6970   23.6690   -9.3880 C   0  0  0  0  0  0  0  0  0  0  0  0
   -3.6710   24.0950   -6.8860 C   0  0  0  0  0  0  0  0  0  0  0  0
   -5.7740   20.9740   -7.3570 C   0  0  1  0  0  0  0  0  0  0  0  0
   -6.0750   21.6570   -8.6860 C   0  0  1  0  0  0  0  0  0  0  0  0
   -6.7140   19.9480   -7.1590 O   0  0  0  0  0  0  0  0  0  0  0  0
   -6.9600   22.7730   -8.6420 O   0  0  0  0  0  0  0  0  0  0  0  0
   -5.2140   23.8960   -9.4160 C   0  0  0  0  0  0  0  0  0  0  0  0
   -5.1800   23.9570   -6.9990 C   0  0  0  0  0  0  0  0  0  0  0  0
   -5.7670   24.4200   -8.2120 O   0  0  0  0  0  0  0  0  0  0  0  0
  2  1  1  0
  2  3  1  0
  2  4  1  0
  2  5  1  0
  5  6  1  1
  5  7  1  0
  6  8  1  0
  7  9  1  6
  7 10  1  0
 10 11  1  6
  8 12  1  0
  8 13  1  0
  9 14  1  0
 10 15  1  0
 14 15  1  0
 14 16  1  6
 15 17  1  1
 12 18  1  0
 13 19  1  0
 18 20  1  0
 19 20  1  0
M  END
>  <%Rank>  (991) 
75.572519

>  <N_hits>  (991) 
2

>  <submitter_name>  (991) 
nan

>  <original SMILES>  (991) 
nan

>  <∆G_unbound>  (991) 
2.5949

>  <∆G_bound>  (991) 
2.588492

>  <regarded>  (991) 
1HJZ_0_B_α,5LW0_0_A_α

>  <ref_pdb>  (991) 
nan

>  <smiles>  (991) 
OC1OC(C(CN2CCOCC2)S(O)(O)O)C(O)C1O

>  <submitter_email>  (991) 
nan

>  <disregarded>  (991) 


>  <LE>  (991) 
-0.00032

>  <submitter_institution>  (991) 
nan

>  <ref_mols>  (991) 
1HJZ_0_B,5LW0_0_A

>  <N_constrained_atoms>  (991) 
20.0

>  <ref_url>  (991) 
nan

>  <method>  (991) 
nan

>  <comRMSD>  (991) 
1.118976

>  <N_unconstrained_atoms>  (991) 
0.0

>  <∆∆G>  (991) 
-0.006408

>  <runtime>  (991) 
60.629885

>  <generation_date>  (991) 
nan

$$$$
mArh-x0685_0_A_α-5CMS_0_J_δ
     RDKit          3D

 20 22  0  0  0  0  0  0  0  0999 V2000
   -6.9360   14.3810    2.2720 N   0  0  0  0  0  0  0  0  0  0  0  0
   -8.1420   13.5850    2.1190 C   0  0  0  0  0  0  0  0  0  0  0  0
   -8.0650   12.3100    2.9390 C   0  0  0  0  0  0  0  0  0  0  0  0
   -6.0210   14.3640    1.2230 C   0  0  0  0  0  0  0  0  0  0  0  0
   -4.7950   13.7360    1.3220 C   0  0  0  0  0  0  0  0  0  0  0  0
   -6.3980   15.0080    0.1010 N   0  0  0  0  0  0  0  0  0  0  0  0
   -3.9180   13.7820    0.2510 C   0  0  0  0  0  0  0  0  0  0  0  0
   -5.5210   15.0480   -0.9380 C   0  0  0  0  0  0  0  0  0  0  0  0
   -4.2570   14.4600   -0.9280 C   0  0  0  0  0  0  0  0  0  0  0  0
   -3.3020   14.5590   -2.1020 C   0  0  2  0  0  0  0  0  0  0  0  0
   -2.2220   13.6080   -2.0940 N   0  0  0  0  0  0  0  0  0  0  0  0
   -2.6160   15.8150   -1.9660 N   0  0  0  0  0  0  0  0  0  0  0  0
   -3.9080   14.5260   -3.3930 N   0  0  0  0  0  0  0  0  0  0  0  0
   -1.6570   13.9650   -0.8390 C   0  0  2  0  0  0  0  0  0  0  0  0
   -1.6490   15.4780   -0.8870 C   0  0  2  0  0  0  0  0  0  0  0  0
   -0.3690   13.4950   -0.4590 N   0  0  0  0  0  0  0  0  0  0  0  0
   -1.8600   15.7290    0.6100 C   0  0  1  0  0  0  0  0  0  0  0  0
   -3.2260   15.9950    0.9990 N   0  0  0  0  0  0  0  0  0  0  0  0
   -0.1690   14.0430    0.8780 C   0  0  0  0  0  0  0  0  0  0  0  0
   -1.4040   14.6030    1.3960 N   0  0  0  0  0  0  0  0  0  0  0  0
  1  2  1  0
  2  3  1  0
  1  4  1  0
  4  5  2  0
  4  6  1  0
  5  7  1  0
  6  8  2  0
  7  9  2  0
  8  9  1  0
  9 10  1  0
 10 11  1  0
 10 12  1  0
 10 13  1  6
 14 11  1  6
 15 12  1  6
 14 15  1  0
 14 16  1  0
 15 17  1  0
 17 18  1  6
 16 19  1  0
 17 20  1  0
 19 20  1  0
M  END
>  <%Rank>  (992) 
75.648855

>  <N_hits>  (992) 
2

>  <submitter_name>  (992) 
nan

>  <original SMILES>  (992) 
nan

>  <∆G_unbound>  (992) 
0.661043

>  <∆G_bound>  (992) 
-0.21353

>  <regarded>  (992) 
mArh-x0685_0_A_α,5CMS_0_J_δ

>  <ref_pdb>  (992) 
nan

>  <smiles>  (992) 
CCNc1ccc(C2(N)NC3NCNC(N)C3N2)cn1

>  <submitter_email>  (992) 
nan

>  <disregarded>  (992) 


>  <LE>  (992) 
-0.043729

>  <submitter_institution>  (992) 
nan

>  <ref_mols>  (992) 
mArh-x0685_0_A,5CMS_0_J

>  <N_constrained_atoms>  (992) 
20.0

>  <ref_url>  (992) 
nan

>  <method>  (992) 
nan

>  <comRMSD>  (992) 
1.143351

>  <N_unconstrained_atoms>  (992) 
0.0

>  <∆∆G>  (992) 
-0.874573

>  <runtime>  (992) 
45.048563

>  <generation_date>  (992) 
nan

$$$$
mArh-2fav_B_0_B_β-5LW0_1_B_α
     RDKit          3D

 17 17  0  0  0  0  0  0  0  0999 V2000
   -1.7590   21.6850   -8.1780 O   0  0  0  0  0  0  0  0  0  0  0  0
   -0.5970   20.4220   -7.8870 P   0  0  0  0  0  0  0  0  0  0  0  0
   -0.6780   19.7160   -6.3930 O   0  0  0  0  0  0  0  0  0  0  0  0
   -3.1090   21.4220   -8.5210 C   0  0  1  0  0  0  0  0  0  0  0  0
    0.3070   21.5390   -7.3910 O   0  0  0  0  0  0  0  0  0  0  0  0
   -1.3150   19.2620   -8.5030 O   0  0  0  0  0  0  0  0  0  0  0  0
   -3.8160   20.7850   -7.5250 O   0  0  0  0  0  0  0  0  0  0  0  0
   -3.9950   22.6760   -8.8030 C   0  0  1  0  0  0  0  0  0  0  0  0
   -0.9320   18.2380   -5.9700 P   0  0  0  0  0  0  0  0  0  0  0  0
   -4.7610   22.3690   -9.9250 O   0  0  0  0  0  0  0  0  0  0  0  0
   -4.7380   21.5780   -6.8510 C   0  0  1  0  0  0  0  0  0  0  0  0
   -4.9760   22.8080   -7.6380 C   0  0  2  0  0  0  0  0  0  0  0  0
   -0.9540   16.7860   -5.4690 O   0  0  0  0  0  0  0  0  0  0  0  0
   -1.2660   18.7620   -4.4500 O   0  0  0  0  0  0  0  0  0  0  0  0
   -2.2530   18.0100   -6.9290 O   0  0  0  0  0  0  0  0  0  0  0  0
   -6.0000   21.0510   -6.5880 O   0  0  0  0  0  0  0  0  0  0  0  0
   -6.2640   22.7650   -8.2160 O   0  0  0  0  0  0  0  0  0  0  0  0
  1  2  1  0
  2  3  1  0
  4  1  1  1
  2  5  1  0
  2  6  1  0
  4  7  1  0
  4  8  1  0
  3  9  1  0
  8 10  1  6
  7 11  1  0
  8 12  1  0
 11 12  1  0
  9 13  1  0
  9 14  1  0
  9 15  1  0
 11 16  1  6
 12 17  1  6
M  CHG  2   5  -1  14  -1
M  END
>  <%Rank>  (993) 
75.725191

>  <N_hits>  (993) 
2

>  <submitter_name>  (993) 
nan

>  <original SMILES>  (993) 
nan

>  <∆G_unbound>  (993) 
0.972863

>  <∆G_bound>  (993) 
-5.001133

>  <regarded>  (993) 
mArh-2fav_B_0_B_β,5LW0_1_B_α

>  <ref_pdb>  (993) 
nan

>  <smiles>  (993) 
[O-][PH](O)(O)O[PH]([O-])(O)OC1OC(O)C(O)C1O

>  <submitter_email>  (993) 
nan

>  <disregarded>  (993) 


>  <LE>  (993) 
-0.351412

>  <submitter_institution>  (993) 
nan

>  <ref_mols>  (993) 
mArh-2fav_B_0_B,5LW0_1_B

>  <N_constrained_atoms>  (993) 
17.0

>  <ref_url>  (993) 
nan

>  <method>  (993) 
nan

>  <comRMSD>  (993) 
1.240758

>  <N_unconstrained_atoms>  (993) 
0.0

>  <∆∆G>  (993) 
-5.973997

>  <runtime>  (993) 
29.85549

>  <generation_date>  (993) 
nan

$$$$
5MQX_0_A_β-MAC-194_0_A_α
     RDKit          3D

 21 22  0  0  0  0  0  0  0  0999 V2000
   -1.7450   18.3780   -7.0340 O   0  0  0  0  0  0  0  0  0  0  0  0
   -2.1220   18.2970   -5.4110 P   0  0  0  0  0  0  0  0  0  0  0  0
   -2.1320   16.9440   -4.5100 O   0  0  0  0  0  0  0  0  0  0  0  0
   -2.7480   19.7440   -4.8050 O   0  0  0  0  0  0  0  0  0  0  0  0
   -0.7850   18.8080   -4.9390 O   0  0  0  0  0  0  0  0  0  0  0  0
   -3.1180   15.5990   -4.3750 P   0  0  0  0  0  0  0  0  0  0  0  0
   -2.5570   14.1950   -5.0980 O   0  0  0  0  0  0  0  0  0  0  0  0
   -4.3890   15.3790   -3.2680 O   0  0  0  0  0  0  0  0  0  0  0  0
   -3.9840   15.8500   -5.5910 O   0  0  0  0  0  0  0  0  0  0  0  0
   -4.1840   15.0700   -1.9530 C   0  0  0  0  0  0  0  0  0  0  0  0
   -5.1300   14.9020   -0.8850 C   0  0  0  0  0  0  0  0  0  0  0  0
   -2.8370   14.9050   -1.6280 C   0  0  0  0  0  0  0  0  0  0  0  0
   -6.5260   15.0080   -1.0090 C   0  0  0  0  0  0  0  0  0  0  0  0
   -4.6150   14.6050    0.3980 C   0  0  0  0  0  0  0  0  0  0  0  0
   -2.3860   14.6090   -0.3790 C   0  0  0  0  0  0  0  0  0  0  0  0
   -7.0720   15.2560   -2.1270 O   0  0  0  0  0  0  0  0  0  0  0  0
   -7.3130   14.8180    0.0820 N   0  0  0  0  0  0  0  0  0  0  0  0
   -5.4760   14.4620    1.4160 N   0  0  0  0  0  0  0  0  0  0  0  0
   -3.2690   14.4620    0.6390 C   0  0  0  0  0  0  0  0  0  0  0  0
   -6.7930   14.5650    1.2940 C   0  0  0  0  0  0  0  0  0  0  0  0
   -7.6590   14.4250    2.4430 N   0  0  0  0  0  0  0  0  0  0  0  0
  1  2  1  0
  2  3  1  0
  2  4  1  0
  2  5  1  0
  3  6  1  0
  6  7  1  0
  6  8  1  0
  6  9  1  0
  8 10  1  0
 10 11  2  0
 10 12  1  0
 11 13  1  0
 11 14  1  0
 12 15  2  0
 13 16  2  0
 13 17  1  0
 14 18  1  0
 14 19  2  0
 15 19  1  0
 17 20  1  0
 18 20  2  0
 20 21  1  0
M  CHG  1   4  -1
M  END
>  <%Rank>  (994) 
75.801527

>  <N_hits>  (994) 
2

>  <submitter_name>  (994) 
nan

>  <original SMILES>  (994) 
nan

>  <∆G_unbound>  (994) 
2.119813

>  <∆G_bound>  (994) 
-3.182858

>  <regarded>  (994) 
5MQX_0_A_β,MAC-194_0_A_α

>  <ref_pdb>  (994) 
nan

>  <smiles>  (994) 
Nc1nc2cccc(O[PH](O)(O)O[PH]([O-])(O)O)c2c(=O)[nH]1

>  <submitter_email>  (994) 
nan

>  <disregarded>  (994) 


>  <LE>  (994) 
-0.252508

>  <submitter_institution>  (994) 
nan

>  <ref_mols>  (994) 
5MQX_0_A,MAC-194_0_A

>  <N_constrained_atoms>  (994) 
21.0

>  <ref_url>  (994) 
nan

>  <method>  (994) 
nan

>  <comRMSD>  (994) 
1.271065

>  <N_unconstrained_atoms>  (994) 
0.0

>  <∆∆G>  (994) 
-5.302671

>  <runtime>  (994) 
32.74599

>  <generation_date>  (994) 
nan

$$$$
mArh-x0711_0_A_α-mArh-x0910_2_B_α
     RDKit          3D

 26 27  0  0  0  0  0  0  0  0999 V2000
   -1.5820   15.0610   -2.5270 N   0  0  0  0  0  0  0  0  0  0  0  0
   -0.6150   13.8170   -3.1010 S   0  0  0  0  0  0  0  0  0  0  0  0
   -1.7520   12.7540   -3.9630 C   0  0  0  0  0  0  0  0  0  0  0  0
   -2.8330   14.9400   -1.8430 C   0  0  0  0  0  0  0  0  0  0  0  0
    0.3070   14.3750   -4.0650 O   0  0  0  0  0  0  0  0  0  0  0  0
   -0.1260   13.1190   -1.9310 O   0  0  0  0  0  0  0  0  0  0  0  0
   -4.0390   15.1430   -2.5120 C   0  0  0  0  0  0  0  0  0  0  0  0
   -2.8460   14.6310   -0.4800 C   0  0  0  0  0  0  0  0  0  0  0  0
   -5.2590   15.0460   -1.8320 C   0  0  0  0  0  0  0  0  0  0  0  0
   -4.0640   14.5320    0.2040 C   0  0  0  0  0  0  0  0  0  0  0  0
   -5.2860   14.7400   -0.4640 C   0  0  0  0  0  0  0  0  0  0  0  0
   -6.5740   14.6210    0.3330 C   0  0  0  0  0  0  0  0  0  0  0  0
   -6.4440   14.1480    1.6150 N   0  0  0  0  0  0  0  0  0  0  0  0
   -7.7270   14.9550   -0.1740 N   0  0  0  0  0  0  0  0  0  0  0  0
   -8.0410   15.4910   -1.5000 C   0  0  0  0  0  0  0  0  0  0  0  0
   -8.5270   16.9410   -1.3780 C   0  0  0  0  0  0  0  0  0  0  0  0
   -9.9770   17.1550   -0.9540 C   0  0  0  0  0  0  0  0  0  0  0  0
  -10.6360   18.0350   -2.0170 C   0  0  0  0  0  0  0  0  0  0  0  0
  -11.5850   19.0950   -1.4540 C   0  0  0  0  0  0  0  0  0  0  0  0
  -12.3530   19.8140   -2.5750 C   0  0  0  0  0  0  0  0  0  0  0  0
  -11.8420   21.1480   -2.8670 N   0  0  0  0  0  0  0  0  0  0  0  0
  -12.2890   22.2010   -2.1490 C   0  0  0  0  0  0  0  0  0  0  0  0
  -11.7750   23.4530   -2.3350 N   0  0  0  0  0  0  0  0  0  0  0  0
  -13.2150   22.2540   -1.2160 N   0  0  0  0  0  0  0  0  0  0  0  0
  -12.3590   24.3400   -1.5200 N   0  0  0  0  0  0  0  0  0  0  0  0
  -13.2230   23.5690   -0.8600 C   0  0  0  0  0  0  0  0  0  0  0  0
  2  1  1  0
  2  3  1  0
  1  4  1  0
  2  5  2  0
  2  6  2  0
  4  7  2  0
  4  8  1  0
  7  9  1  0
  8 10  2  0
  9 11  2  0
 10 11  1  0
 11 12  1  0
 12 13  1  0
 12 14  2  3
 14 15  1  0
 15 16  1  0
 16 17  1  0
 17 18  1  0
 18 19  1  0
 19 20  1  0
 20 21  1  0
 21 22  1  0
 22 23  1  0
 22 24  2  0
 23 25  1  0
 24 26  1  0
 25 26  2  0
M  END
>  <%Rank>  (995) 
75.877863

>  <N_hits>  (995) 
2

>  <submitter_name>  (995) 
nan

>  <original SMILES>  (995) 
nan

>  <∆G_unbound>  (995) 
0.179996

>  <∆G_bound>  (995) 
-7.981636

>  <regarded>  (995) 
mArh-x0711_0_A_α,mArh-x0910_2_B_α

>  <ref_pdb>  (995) 
nan

>  <smiles>  (995) 
CS(=O)(=O)Nc1ccc(C(N)=NCCCCCCNc2ncn[nH]2)cc1

>  <submitter_email>  (995) 
nan

>  <disregarded>  (995) 


>  <LE>  (995) 
-0.313909

>  <submitter_institution>  (995) 
nan

>  <ref_mols>  (995) 
mArh-x0711_0_A,mArh-x0910_2_B

>  <N_constrained_atoms>  (995) 
20.0

>  <ref_url>  (995) 
nan

>  <method>  (995) 
nan

>  <comRMSD>  (995) 
1.137025

>  <N_unconstrained_atoms>  (995) 
6.0

>  <∆∆G>  (995) 
-8.161633

>  <runtime>  (995) 
39.176178

>  <generation_date>  (995) 
nan

$$$$
mArh-5lw0_A_0_A_β-mArh-5cms_M_12_M_γ
     RDKit          3D

 16 16  0  0  0  0  0  0  0  0999 V2000
   -1.5430   20.2890   -8.5250 O   0  0  0  0  0  0  0  0  0  0  0  0
   -0.4320   19.4900   -7.7200 P   0  0  0  0  0  0  0  0  0  0  0  0
   -1.1280   19.0530   -6.3580 O   0  0  0  0  0  0  0  0  0  0  0  0
    0.8370   20.1690   -7.6220 O   0  0  0  0  0  0  0  0  0  0  0  0
   -0.2270   18.2770   -8.6680 O   0  0  0  0  0  0  0  0  0  0  0  0
   -1.6410   17.6120   -5.9830 P   0  0  2  0  0  0  0  0  0  0  0  0
   -0.3760   16.6780   -5.6470 O   0  0  0  0  0  0  0  0  0  0  0  0
   -2.7060   17.0580   -6.8480 O   0  0  0  0  0  0  0  0  0  0  0  0
   -2.2030   17.8070   -4.5280 O   0  0  0  0  0  0  0  0  0  0  0  0
   -0.6570   15.5680   -4.8160 C   0  0  2  0  0  0  0  0  0  0  0  0
   -0.1400   15.6250   -3.4810 O   0  0  0  0  0  0  0  0  0  0  0  0
   -0.2310   14.1740   -5.2680 C   0  0  1  0  0  0  0  0  0  0  0  0
    1.1610   13.8300   -5.1140 O   0  0  0  0  0  0  0  0  0  0  0  0
   -0.4810   14.3220   -2.9580 C   0  0  0  0  0  0  0  0  0  0  0  0
   -0.9730   13.4930   -4.1570 C   0  0  2  0  0  0  0  0  0  0  0  0
   -0.6580   12.1160   -4.0960 O   0  0  0  0  0  0  0  0  0  0  0  0
  1  2  1  0
  2  3  1  0
  2  4  2  0
  2  5  1  0
  3  6  1  0
  6  7  1  0
  6  8  2  0
  6  9  1  1
 10  7  1  6
 10 11  1  0
 10 12  1  0
 12 13  1  1
 11 14  1  0
 12 15  1  0
 14 15  1  0
 15 16  1  1
M  END
>  <%Rank>  (996) 
75.954198

>  <N_hits>  (996) 
2

>  <submitter_name>  (996) 
nan

>  <original SMILES>  (996) 
nan

>  <∆G_unbound>  (996) 
1.157846

>  <∆G_bound>  (996) 
-6.601238

>  <regarded>  (996) 
mArh-5lw0_A_0_A_β,mArh-5cms_M_12_M_γ

>  <ref_pdb>  (996) 
nan

>  <smiles>  (996) 
O=P(O)(O)OP(=O)(O)OC1OCC(O)C1O

>  <submitter_email>  (996) 
nan

>  <disregarded>  (996) 


>  <LE>  (996) 
-0.484943

>  <submitter_institution>  (996) 
nan

>  <ref_mols>  (996) 
mArh-5lw0_A_0_A,mArh-5cms_M_12_M

>  <N_constrained_atoms>  (996) 
16.0

>  <ref_url>  (996) 
nan

>  <method>  (996) 
nan

>  <comRMSD>  (996) 
1.290811

>  <N_unconstrained_atoms>  (996) 
0.0

>  <∆∆G>  (996) 
-7.759084

>  <runtime>  (996) 
31.265488

>  <generation_date>  (996) 
nan

$$$$
mArh-x0711_0_A_α-5CB5_0_N_γ
     RDKit          3D

 20 22  0  0  0  0  0  0  0  0999 V2000
   -1.1690   14.8510   -2.0890 N   0  0  0  0  0  0  0  0  0  0  0  0
   -0.0360   13.8130   -2.7540 S   0  0  1  0  0  0  0  0  0  0  0  0
   -0.6560   13.1050   -4.2800 C   0  0  0  0  0  0  0  0  0  0  0  0
   -2.5010   14.7910   -1.5930 C   0  0  0  0  0  0  0  0  0  0  0  0
    1.1080   14.5850   -3.4390 N   0  0  0  0  0  0  0  0  0  0  0  0
    0.2000   12.8080   -1.7680 O   0  0  0  0  0  0  0  0  0  0  0  0
   -3.6870   14.9890   -2.3250 C   0  0  0  0  0  0  0  0  0  0  0  0
   -2.6520   14.5200   -0.2220 C   0  0  0  0  0  0  0  0  0  0  0  0
   -4.9560   14.9250   -1.7200 C   0  0  0  0  0  0  0  0  0  0  0  0
   -3.9110   14.4500    0.3900 C   0  0  0  0  0  0  0  0  0  0  0  0
    0.5580   15.1760   -4.6600 C   0  0  1  0  0  0  0  0  0  0  0  0
   -0.7750   14.4450   -4.9400 C   0  0  2  0  0  0  0  0  0  0  0  0
   -5.0750   14.6550   -0.3540 C   0  0  0  0  0  0  0  0  0  0  0  0
   -1.8100   15.4370   -4.5350 C   0  0  0  0  0  0  0  0  0  0  0  0
    0.2480   16.6450   -4.6330 C   0  0  1  0  0  0  0  0  0  0  0  0
   -6.3960   14.5780    0.3420 C   0  0  0  0  0  0  0  0  0  0  0  0
    0.4900   17.5010   -5.8550 C   0  0  0  0  0  0  0  0  0  0  0  0
   -1.1590   16.7090   -4.3020 O   0  0  0  0  0  0  0  0  0  0  0  0
   -6.4360   14.6550    1.7120 N   0  0  0  0  0  0  0  0  0  0  0  0
   -7.4400   14.4580   -0.2860 O   0  0  0  0  0  0  0  0  0  0  0  0
  2  1  1  1
  2  3  1  0
  1  4  1  0
  2  5  2  0
  2  6  2  0
  4  7  2  0
  4  8  1  0
  7  9  1  0
  8 10  2  0
 11  5  1  1
 12  3  1  1
 11 12  1  0
  9 13  2  0
 10 13  1  0
 12 14  1  0
 11 15  1  0
 13 16  1  0
 15 17  1  6
 14 18  1  0
 15 18  1  0
 16 19  1  0
 16 20  2  0
M  END
>  <%Rank>  (997) 
76.030534

>  <N_hits>  (997) 
2

>  <submitter_name>  (997) 
nan

>  <original SMILES>  (997) 
nan

>  <∆G_unbound>  (997) 
-0.132522

>  <∆G_bound>  (997) 
-8.264764

>  <regarded>  (997) 
mArh-x0711_0_A_α,5CB5_0_N_γ

>  <ref_pdb>  (997) 
nan

>  <smiles>  (997) 
CC1OCC2CS(=O)(Nc3ccc(C(N)=O)cc3)=NC21

>  <submitter_email>  (997) 
nan

>  <disregarded>  (997) 


>  <LE>  (997) 
-0.406612

>  <submitter_institution>  (997) 
nan

>  <ref_mols>  (997) 
mArh-x0711_0_A,5CB5_0_N

>  <N_constrained_atoms>  (997) 
20.0

>  <ref_url>  (997) 
nan

>  <method>  (997) 
nan

>  <comRMSD>  (997) 
1.336945

>  <N_unconstrained_atoms>  (997) 
0.0

>  <∆∆G>  (997) 
-8.132243

>  <runtime>  (997) 
33.055707

>  <generation_date>  (997) 
nan

$$$$
mArh-5l9k_B_0_B_α-mArh-x0722_0_A_α
     RDKit          3D

 28 29  0  0  0  0  0  0  0  0999 V2000
   -2.5040   21.5170   -8.8540 C   0  0  0  0  0  0  0  0  0  0  0  0
   -3.0530   22.6750   -8.0770 C   0  0  2  0  0  0  0  0  0  0  0  0
   -3.2070   22.1430   -6.7830 O   0  0  0  0  0  0  0  0  0  0  0  0
   -4.3790   23.3360   -8.4650 C   0  0  1  0  0  0  0  0  0  0  0  0
   -4.9280   23.0160   -9.7330 O   0  0  0  0  0  0  0  0  0  0  0  0
   -4.5590   22.0690   -6.4210 C   0  0  1  0  0  0  0  0  0  0  0  0
   -5.3420   23.0220   -7.3240 C   0  0  1  0  0  0  0  0  0  0  0  0
   -4.9090   20.7120   -6.4610 O   0  0  0  0  0  0  0  0  0  0  0  0
   -5.6650   24.2020   -6.5620 O   0  0  0  0  0  0  0  0  0  0  0  0
   -3.7490   19.9580   -6.9290 C   0  0  0  0  0  0  0  0  0  0  0  0
   -2.6430   19.3430   -6.0010 C   0  0  0  0  0  0  0  0  0  0  0  0
   -2.5300   17.7550   -6.1210 C   0  0  0  0  0  0  0  0  0  0  0  0
   -1.9620   16.8150   -5.0020 C   0  0  0  0  0  0  0  0  0  0  0  0
   -2.7950   15.9030   -3.9950 C   0  0  0  0  0  0  0  0  0  0  0  0
   -3.8350   14.7820   -4.3060 C   0  0  0  0  0  0  0  0  0  0  0  0
   -5.1790   14.9180   -3.5110 C   0  0  0  0  0  0  0  0  0  0  0  0
   -5.5780   13.9570   -2.4850 N   0  0  0  0  0  0  0  0  0  0  0  0
   -5.3490   14.1900   -1.2480 C   0  0  0  0  0  0  0  0  0  0  0  0
   -5.6920   13.3900   -0.1830 N   0  0  0  0  0  0  0  0  0  0  0  0
   -4.5960   15.4830   -0.9300 C   0  0  0  0  0  0  0  0  0  0  0  0
   -3.4220   15.1640   -0.0830 C   0  0  0  0  0  0  0  0  0  0  0  0
   -3.3430   15.2850    1.3040 C   0  0  0  0  0  0  0  0  0  0  0  0
   -2.1670   14.6990   -0.4460 C   0  0  0  0  0  0  0  0  0  0  0  0
   -4.3600   15.7770    2.2180 C   0  0  0  0  0  0  0  0  0  0  0  0
   -1.5820   14.3860   -1.7720 C   0  0  0  0  0  0  0  0  0  0  0  0
   -2.1760   14.9100    1.7860 N   0  0  0  0  0  0  0  0  0  0  0  0
   -1.4770   14.5690    0.7270 N   0  0  0  0  0  0  0  0  0  0  0  0
   -0.1320   14.1330    0.9430 C   0  0  0  0  0  0  0  0  0  0  0  0
  2  1  1  6
  2  3  1  0
  2  4  1  0
  4  5  1  6
  3  6  1  0
  4  7  1  0
  6  7  1  0
  6  8  1  6
  7  9  1  1
  8 10  1  0
 10 11  1  0
 11 12  1  0
 12 13  1  0
 13 14  1  0
 14 15  1  0
 15 16  1  0
 16 17  1  0
 17 18  2  3
 18 19  1  0
 18 20  1  0
 20 21  1  0
 21 22  1  0
 21 23  2  0
 22 24  1  0
 23 25  1  0
 22 26  2  0
 23 27  1  0
 26 27  1  0
 27 28  1  0
M  END
>  <%Rank>  (998) 
76.10687

>  <N_hits>  (998) 
2

>  <submitter_name>  (998) 
nan

>  <original SMILES>  (998) 
nan

>  <∆G_unbound>  (998) 
0.440368

>  <∆G_bound>  (998) 
-9.778726

>  <regarded>  (998) 
mArh-5l9k_B_0_B_α,mArh-x0722_0_A_α

>  <ref_pdb>  (998) 
nan

>  <smiles>  (998) 
Cc1nn(C)c(C)c1CC(N)=NCCCCCCCOC1OC(C)C(O)C1O

>  <submitter_email>  (998) 
nan

>  <disregarded>  (998) 


>  <LE>  (998) 
-0.364968

>  <submitter_institution>  (998) 
nan

>  <ref_mols>  (998) 
mArh-5l9k_B_0_B,mArh-x0722_0_A

>  <N_constrained_atoms>  (998) 
21.0

>  <ref_url>  (998) 
nan

>  <method>  (998) 
nan

>  <comRMSD>  (998) 
1.16895

>  <N_unconstrained_atoms>  (998) 
7.0

>  <∆∆G>  (998) 
-10.219094

>  <runtime>  (998) 
34.240987

>  <generation_date>  (998) 
nan

$$$$
mArh-3q6z_0_A_γ-mArh-x1012_0_A_α
     RDKit          3D

 12 12  0  0  0  0  0  0  0  0999 V2000
   -1.0050   12.1010   -4.3610 O   0  0  0  0  0  0  0  0  0  0  0  0
   -1.0980   13.5120   -4.3070 C   0  0  1  0  0  0  0  0  0  0  0  0
   -1.4150   14.0950   -2.9150 C   0  0  0  0  0  0  0  0  0  0  0  0
    0.2570   14.1220   -4.4950 C   0  0  2  0  0  0  0  0  0  0  0  0
    1.0780   13.4210   -3.4330 C   0  0  0  0  0  0  0  0  0  0  0  0
   -0.6890   15.3340   -2.8470 O   0  0  0  0  0  0  0  0  0  0  0  0
   -0.3200   15.4960   -4.2100 C   0  0  1  0  0  0  0  0  0  0  0  0
    0.4260   16.7770   -4.5290 C   0  0  0  0  0  0  0  0  0  0  0  0
    1.0050   12.0660   -3.5420 O   0  0  0  0  0  0  0  0  0  0  0  0
    1.7030   13.9560   -2.5300 O   0  0  0  0  0  0  0  0  0  0  0  0
   -0.6230   17.8150   -4.9090 C   0  0  0  0  0  0  0  0  0  0  0  0
   -1.8460   17.7220   -4.6810 O   0  0  0  0  0  0  0  0  0  0  0  0
  2  1  1  1
  2  3  1  0
  2  4  1  0
  4  5  1  1
  3  6  1  0
  4  7  1  0
  6  7  1  0
  7  8  1  1
  5  9  1  0
  5 10  2  0
  8 11  1  0
 11 12  2  0
M  END
>  <%Rank>  (999) 
76.183206

>  <N_hits>  (999) 
2

>  <submitter_name>  (999) 
nan

>  <original SMILES>  (999) 
nan

>  <∆G_unbound>  (999) 
0.354647

>  <∆G_bound>  (999) 
-2.655549

>  <regarded>  (999) 
mArh-3q6z_0_A_γ,mArh-x1012_0_A_α

>  <ref_pdb>  (999) 
nan

>  <smiles>  (999) 
O=CCC1OCC(O)C1C(=O)O

>  <submitter_email>  (999) 
nan

>  <disregarded>  (999) 


>  <LE>  (999) 
-0.25085

>  <submitter_institution>  (999) 
nan

>  <ref_mols>  (999) 
mArh-3q6z_0_A,mArh-x1012_0_A

>  <N_constrained_atoms>  (999) 
12.0

>  <ref_url>  (999) 
nan

>  <method>  (999) 
nan

>  <comRMSD>  (999) 
1.074953

>  <N_unconstrained_atoms>  (999) 
0.0

>  <∆∆G>  (999) 
-3.010196

>  <runtime>  (999) 
25.867513

>  <generation_date>  (999) 
nan

$$$$
5LW0_0_A_δ-mArh-x0969_0_A_α
     RDKit          3D

 15 17  0  0  0  0  0  0  0  0999 V2000
   -4.3590   15.7330    1.9430 N   0  0  0  0  0  0  0  0  0  0  0  0
   -3.1520   15.6860    1.1530 C   0  0  2  0  0  0  0  0  0  0  0  0
   -3.3910   15.3240   -0.3080 C   0  0  1  0  0  0  0  0  0  0  0  0
   -2.2690   14.8130    1.8690 N   0  0  0  0  0  0  0  0  0  0  0  0
   -2.1410   14.6250   -0.9200 C   0  0  2  0  0  0  0  0  0  0  0  0
   -4.5640   14.4120   -0.5510 C   0  0  2  0  0  0  0  0  0  0  0  0
   -0.9840   14.6290    1.2380 C   0  0  0  0  0  0  0  0  0  0  0  0
   -2.6130   13.6370   -1.8420 N   0  0  0  0  0  0  0  0  0  0  0  0
   -4.0180   13.3310   -1.5050 C   0  0  0  0  0  0  0  0  0  0  0  0
   -1.1490   14.0370   -0.0490 N   0  0  0  0  0  0  0  0  0  0  0  0
   -5.7640   15.1100   -1.1010 N   0  0  0  0  0  0  0  0  0  0  0  0
   -5.0080   13.9730    0.7750 N   0  0  0  0  0  0  0  0  0  0  0  0
   -6.2170   14.4320    0.8530 C   0  0  0  0  0  0  0  0  0  0  0  0
   -6.7110   15.0520   -0.2580 N   0  0  0  0  0  0  0  0  0  0  0  0
   -6.9210   14.2910    2.0100 N   0  0  0  0  0  0  0  0  0  0  0  0
  2  1  1  1
  3  2  1  1
  2  4  1  0
  3  5  1  0
  3  6  1  0
  4  7  1  0
  5  8  1  6
  6  9  1  6
  8  9  1  0
  5 10  1  0
  7 10  1  0
  6 11  1  0
  6 12  1  0
 12 13  2  0
 11 14  2  0
 13 14  1  0
 13 15  1  0
M  END
>  <%Rank>  (1000) 
76.259542

>  <N_hits>  (1000) 
2

>  <submitter_name>  (1000) 
nan

>  <original SMILES>  (1000) 
nan

>  <∆G_unbound>  (1000) 
1.768036

>  <∆G_bound>  (1000) 
0.674155

>  <regarded>  (1000) 
5LW0_0_A_δ,mArh-x0969_0_A_α

>  <ref_pdb>  (1000) 
nan

>  <smiles>  (1000) 
NC1=NC2(CNC3NCNC(N)C32)N=N1

>  <submitter_email>  (1000) 
nan

>  <disregarded>  (1000) 


>  <LE>  (1000) 
-0.072925

>  <submitter_institution>  (1000) 
nan

>  <ref_mols>  (1000) 
5LW0_0_A,mArh-x0969_0_A

>  <N_constrained_atoms>  (1000) 
15.0

>  <ref_url>  (1000) 
nan

>  <method>  (1000) 
nan

>  <comRMSD>  (1000) 
1.067466

>  <N_unconstrained_atoms>  (1000) 
0.0

>  <∆∆G>  (1000) 
-1.093881

>  <runtime>  (1000) 
22.562403

>  <generation_date>  (1000) 
nan

$$$$
2BFQ_1_A_β-5CMS_0_J_β
     RDKit          3D

 11 10  0  0  0  0  0  0  0  0999 V2000
   -1.3090   21.3010   -7.6030 O   0  0  0  0  0  0  0  0  0  0  0  0
   -0.3680   20.0870   -7.5920 P   0  0  0  0  0  0  0  0  0  0  0  0
   -0.8040   19.6590   -6.1110 O   0  0  0  0  0  0  0  0  0  0  0  0
    0.7350   19.0030   -7.6390 O   0  0  0  0  0  0  0  0  0  0  0  0
    0.9030   21.1590   -7.7870 O   0  0  0  0  0  0  0  0  0  0  0  0
   -1.1250   19.4300   -8.8600 O   0  0  0  0  0  0  0  0  0  0  0  0
   -1.5990   18.2190   -6.1070 P   0  0  0  0  0  0  0  0  0  0  0  0
   -0.7910   17.8470   -7.3030 O   0  0  0  0  0  0  0  0  0  0  0  0
   -2.1400   18.5550   -4.7250 O   0  0  0  0  0  0  0  0  0  0  0  0
   -2.9730   18.0570   -6.8300 O   0  0  0  0  0  0  0  0  0  0  0  0
   -0.8620   16.8950   -5.4190 O   0  0  0  0  0  0  0  0  0  0  0  0
  1  2  1  0
  2  3  1  0
  2  4  1  0
  2  5  1  0
  2  6  1  0
  3  7  1  0
  7  8  1  0
  7  9  1  0
  7 10  1  0
  7 11  1  0
M  CHG  3   4  -1   9  -1  11  -1
M  END
>  <%Rank>  (1001) 
76.335878

>  <N_hits>  (1001) 
2

>  <submitter_name>  (1001) 
nan

>  <original SMILES>  (1001) 
nan

>  <∆G_unbound>  (1001) 
0.890508

>  <∆G_bound>  (1001) 
-2.96351

>  <regarded>  (1001) 
2BFQ_1_A_β,5CMS_0_J_β

>  <ref_pdb>  (1001) 
nan

>  <smiles>  (1001) 
[O-]P([O-])(O)(O)OP([O-])(O)(O)O

>  <submitter_email>  (1001) 
nan

>  <disregarded>  (1001) 


>  <LE>  (1001) 
-0.350365

>  <submitter_institution>  (1001) 
nan

>  <ref_mols>  (1001) 
2BFQ_1_A,5CMS_0_J

>  <N_constrained_atoms>  (1001) 
11.0

>  <ref_url>  (1001) 
nan

>  <method>  (1001) 
nan

>  <comRMSD>  (1001) 
1.096014

>  <N_unconstrained_atoms>  (1001) 
0.0

>  <∆∆G>  (1001) 
-3.854018

>  <runtime>  (1001) 
30.714576

>  <generation_date>  (1001) 
nan

$$$$
mArh-5lw0_A_0_A_α-6FX7_0_A_γ
     RDKit          3D

 22 23  0  0  0  0  0  0  0  0999 V2000
   -2.3520   21.3930   -8.8280 C   0  0  0  0  0  0  0  0  0  0  0  0
   -3.3620   22.4360   -8.4000 C   0  0  2  0  0  0  0  0  0  0  0  0
   -3.7840   22.0820   -7.0850 O   0  0  0  0  0  0  0  0  0  0  0  0
   -4.6360   22.6210   -9.2170 C   0  0  1  0  0  0  0  0  0  0  0  0
   -4.5420   22.1320  -10.5500 O   0  0  0  0  0  0  0  0  0  0  0  0
   -5.1580   21.7630   -7.0360 C   0  0  1  0  0  0  0  0  0  0  0  0
   -5.6730   21.8230   -8.4650 C   0  0  1  0  0  0  0  0  0  0  0  0
   -5.1920   20.4490   -6.5890 O   0  0  0  0  0  0  0  0  0  0  0  0
   -6.9190   22.4740   -8.6070 O   0  0  0  0  0  0  0  0  0  0  0  0
   -3.8590   19.9690   -6.8340 C   0  0  0  0  0  0  0  0  0  0  0  0
   -2.7300   20.3680   -5.8900 C   0  0  0  0  0  0  0  0  0  0  0  0
   -1.5290   19.4420   -6.1570 C   0  0  0  0  0  0  0  0  0  0  0  0
   -1.2370   18.5390   -4.9640 C   0  0  0  0  0  0  0  0  0  0  0  0
    0.2340   18.1270   -4.8370 C   0  0  0  0  0  0  0  0  0  0  0  0
    0.4800   16.7520   -5.4240 C   0  0  0  0  0  0  0  0  0  0  0  0
    0.6620   15.6410   -4.3890 C   0  0  1  0  0  0  0  0  0  0  0  0
   -0.2070   15.9070   -3.2560 O   0  0  0  0  0  0  0  0  0  0  0  0
    0.2490   14.2230   -4.8090 C   0  0  2  0  0  0  0  0  0  0  0  0
    0.5600   13.7920   -6.1080 O   0  0  0  0  0  0  0  0  0  0  0  0
   -1.2130   14.8790   -3.1950 C   0  0  0  0  0  0  0  0  0  0  0  0
   -1.2400   14.2780   -4.5780 C   0  0  2  0  0  0  0  0  0  0  0  0
   -1.8200   12.9900   -4.6690 O   0  0  0  0  0  0  0  0  0  0  0  0
  2  1  1  6
  2  3  1  0
  2  4  1  0
  4  5  1  6
  3  6  1  0
  4  7  1  0
  6  7  1  0
  6  8  1  6
  7  9  1  1
  8 10  1  0
 10 11  1  0
 11 12  1  0
 12 13  1  0
 13 14  1  0
 14 15  1  0
 16 15  1  6
 16 17  1  0
 16 18  1  0
 18 19  1  6
 17 20  1  0
 18 21  1  0
 20 21  1  0
 21 22  1  1
M  END
>  <%Rank>  (1002) 
76.412214

>  <N_hits>  (1002) 
2

>  <submitter_name>  (1002) 
nan

>  <original SMILES>  (1002) 
nan

>  <∆G_unbound>  (1002) 
0.187336

>  <∆G_bound>  (1002) 
-7.569584

>  <regarded>  (1002) 
mArh-5lw0_A_0_A_α,6FX7_0_A_γ

>  <ref_pdb>  (1002) 
nan

>  <smiles>  (1002) 
CC1OC(OCCCCCCC2OCC(O)C2O)C(O)C1O

>  <submitter_email>  (1002) 
nan

>  <disregarded>  (1002) 


>  <LE>  (1002) 
-0.352587

>  <submitter_institution>  (1002) 
nan

>  <ref_mols>  (1002) 
mArh-5lw0_A_0_A,6FX7_0_A

>  <N_constrained_atoms>  (1002) 
17.0

>  <ref_url>  (1002) 
nan

>  <method>  (1002) 
nan

>  <comRMSD>  (1002) 
1.109961

>  <N_unconstrained_atoms>  (1002) 
5.0

>  <∆∆G>  (1002) 
-7.756919

>  <runtime>  (1002) 
43.467963

>  <generation_date>  (1002) 
nan

$$$$
5CMS_0_L_α-5CMS_0_N_β
     RDKit          3D

 17 17  0  0  0  0  0  0  0  0999 V2000
   -2.0690   21.0830   -7.9900 C   0  0  0  0  0  0  0  0  0  0  0  0
   -0.6420   20.1050   -7.9400 P   0  0  0  0  0  0  0  0  0  0  0  0
   -0.9750   19.6970   -6.4880 O   0  0  0  0  0  0  0  0  0  0  0  0
   -2.1310   22.0030   -9.1560 C   0  0  1  0  0  0  0  0  0  0  0  0
    0.8000   20.6990   -7.5430 O   0  0  0  0  0  0  0  0  0  0  0  0
   -0.6730   18.4700   -8.4150 O   0  0  0  0  0  0  0  0  0  0  0  0
   -3.0340   21.6080  -10.1350 O   0  0  0  0  0  0  0  0  0  0  0  0
   -2.5460   23.4060   -8.7620 C   0  0  1  0  0  0  0  0  0  0  0  0
   -1.5690   24.2640   -9.1360 O   0  0  0  0  0  0  0  0  0  0  0  0
   -1.2530   18.1960   -5.8620 P   0  0  0  0  0  0  0  0  0  0  0  0
   -4.1830   22.3130   -9.9060 C   0  0  2  0  0  0  0  0  0  0  0  0
   -3.7980   23.6820   -9.6020 C   0  0  2  0  0  0  0  0  0  0  0  0
   -4.9110   21.9040   -8.8130 O   0  0  0  0  0  0  0  0  0  0  0  0
   -3.5290   24.3990  -10.7850 O   0  0  0  0  0  0  0  0  0  0  0  0
   -0.1880   16.9890   -6.2560 O   0  0  0  0  0  0  0  0  0  0  0  0
   -2.2580   17.8900   -6.9780 O   0  0  0  0  0  0  0  0  0  0  0  0
   -2.2680   17.8480   -4.6880 O   0  0  0  0  0  0  0  0  0  0  0  0
  1  2  1  0
  2  3  1  0
  4  1  1  1
  2  5  1  0
  2  6  1  0
  4  7  1  0
  4  8  1  0
  8  9  1  6
  3 10  1  0
  7 11  1  0
  8 12  1  0
 11 12  1  0
 11 13  1  1
 12 14  1  6
 10 15  1  0
 10 16  1  0
 10 17  1  0
M  CHG  2   5  -1  16  -1
M  END
>  <%Rank>  (1003) 
76.48855

>  <N_hits>  (1003) 
2

>  <submitter_name>  (1003) 
nan

>  <original SMILES>  (1003) 
nan

>  <∆G_unbound>  (1003) 
1.818629

>  <∆G_bound>  (1003) 
-4.026507

>  <regarded>  (1003) 
5CMS_0_L_α,5CMS_0_N_β

>  <ref_pdb>  (1003) 
nan

>  <smiles>  (1003) 
[O-][PH](O)(O)O[PH]([O-])(O)CC1OC(O)C(O)C1O

>  <submitter_email>  (1003) 
nan

>  <disregarded>  (1003) 


>  <LE>  (1003) 
-0.343832

>  <submitter_institution>  (1003) 
nan

>  <ref_mols>  (1003) 
5CMS_0_L,5CMS_0_N

>  <N_constrained_atoms>  (1003) 
17.0

>  <ref_url>  (1003) 
nan

>  <method>  (1003) 
nan

>  <comRMSD>  (1003) 
1.256722

>  <N_unconstrained_atoms>  (1003) 
0.0

>  <∆∆G>  (1003) 
-5.845136

>  <runtime>  (1003) 
36.728049

>  <generation_date>  (1003) 
nan

$$$$
mArh-EU0293_0_A_α-mArh-5cms_H_7_H_α
     RDKit          3D

 27 29  0  0  0  0  0  0  0  0999 V2000
    1.1530   14.3780   -0.8750 N   0  0  0  0  0  0  0  0  0  0  0  0
   -0.1440   14.5060   -0.3560 C   0  0  0  0  0  0  0  0  0  0  0  0
   -1.2710   14.6750   -1.1720 C   0  0  0  0  0  0  0  0  0  0  0  0
   -0.3470   14.4630    1.0280 C   0  0  0  0  0  0  0  0  0  0  0  0
   -1.1320   14.7360   -2.6800 C   0  0  0  0  0  0  0  0  0  0  0  0
   -1.5330   14.5650    1.6400 N   0  0  0  0  0  0  0  0  0  0  0  0
   -2.5340   14.7840   -0.5580 C   0  0  0  0  0  0  0  0  0  0  0  0
   -0.4190   16.0140   -3.1320 C   0  0  0  0  0  0  0  0  0  0  0  0
   -2.5940   14.7210    0.8310 C   0  0  0  0  0  0  0  0  0  0  0  0
   -3.8200   14.9600   -1.3370 C   0  0  0  0  0  0  0  0  0  0  0  0
   -1.1920   16.6790   -4.2690 C   0  0  0  0  0  0  0  0  0  0  0  0
   -4.9940   14.6880   -0.5780 O   0  0  0  0  0  0  0  0  0  0  0  0
   -3.8980   14.8160    1.5060 C   0  0  0  0  0  0  0  0  0  0  0  0
   -0.5900   18.0010   -4.7450 C   0  0  0  0  0  0  0  0  0  0  0  0
   -4.9490   15.4200    0.6330 C   0  0  0  0  0  0  0  0  0  0  0  0
   -1.5860   18.9100   -5.4700 C   0  0  0  0  0  0  0  0  0  0  0  0
   -1.0210   19.9300   -6.4470 C   0  0  0  0  0  0  0  0  0  0  0  0
   -1.7030   19.8900   -7.7720 C   0  0  0  0  0  0  0  0  0  0  0  0
   -1.3740   21.0500   -8.7140 C   0  0  0  0  0  0  0  0  0  0  0  0
   -2.5680   21.9120   -9.1120 C   0  0  2  0  0  0  0  0  0  0  0  0
   -3.0390   21.6010  -10.4320 O   0  0  0  0  0  0  0  0  0  0  0  0
   -2.2890   23.4030   -9.1070 C   0  0  1  0  0  0  0  0  0  0  0  0
   -0.9060   23.7060   -9.2340 O   0  0  0  0  0  0  0  0  0  0  0  0
   -3.8130   22.7000  -10.8790 C   0  0  2  0  0  0  0  0  0  0  0  0
   -3.3080   23.9200  -10.1660 C   0  0  2  0  0  0  0  0  0  0  0  0
   -5.1500   22.5920  -10.4820 O   0  0  0  0  0  0  0  0  0  0  0  0
   -2.8520   24.9160  -11.0980 O   0  0  0  0  0  0  0  0  0  0  0  0
  1  2  1  0
  2  3  2  0
  2  4  1  0
  3  5  1  0
  4  6  2  0
  3  7  1  0
  5  8  1  0
  6  9  1  0
  7  9  2  0
  7 10  1  0
  8 11  1  0
 10 12  1  0
  9 13  1  0
 11 14  1  0
 12 15  1  0
 13 15  1  0
 14 16  1  0
 16 17  1  0
 17 18  1  0
 18 19  1  0
 20 19  1  6
 20 21  1  0
 20 22  1  0
 22 23  1  6
 21 24  1  0
 22 25  1  0
 24 25  1  0
 24 26  1  1
 25 27  1  6
M  END
>  <%Rank>  (1004) 
76.564885

>  <N_hits>  (1004) 
2

>  <submitter_name>  (1004) 
nan

>  <original SMILES>  (1004) 
nan

>  <∆G_unbound>  (1004) 
1.512318

>  <∆G_bound>  (1004) 
-9.378202

>  <regarded>  (1004) 
mArh-EU0293_0_A_α,mArh-5cms_H_7_H_α

>  <ref_pdb>  (1004) 
nan

>  <smiles>  (1004) 
Nc1cnc2c(c1CCCCCCCCC1OC(O)C(O)C1O)COCC2

>  <submitter_email>  (1004) 
nan

>  <disregarded>  (1004) 


>  <LE>  (1004) 
-0.403353

>  <submitter_institution>  (1004) 
nan

>  <ref_mols>  (1004) 
mArh-EU0293_0_A,mArh-5cms_H_7_H

>  <N_constrained_atoms>  (1004) 
20.0

>  <ref_url>  (1004) 
nan

>  <method>  (1004) 
nan

>  <comRMSD>  (1004) 
1.174755

>  <N_unconstrained_atoms>  (1004) 
7.0

>  <∆∆G>  (1004) 
-10.89052

>  <runtime>  (1004) 
45.503694

>  <generation_date>  (1004) 
nan

$$$$
3EW5_1_B_α-mArh-5cb5_Q_0_Q_α
     RDKit          3D

 15 15  0  0  0  0  0  0  0  0999 V2000
   -0.7450   19.9680   -7.6720 P   0  0  0  0  0  0  0  0  0  0  0  0
   -1.8910   21.1990   -7.3910 N   0  0  0  0  0  0  0  0  0  0  0  0
   -2.6970   20.6820   -6.3330 C   0  0  0  0  0  0  0  0  0  0  0  0
   -0.3480   19.3720   -9.0640 O   0  0  0  0  0  0  0  0  0  0  0  0
    0.3790   20.9560   -7.6230 O   0  0  0  0  0  0  0  0  0  0  0  0
    0.0400   19.2860   -6.3370 O   0  0  0  0  0  0  0  0  0  0  0  0
   -2.7260   21.8120   -8.3770 C   0  0  1  0  0  0  0  0  0  0  0  0
   -3.7600   21.5510   -5.8340 C   0  0  0  0  0  0  0  0  0  0  0  0
   -3.9130   21.0970   -8.5440 O   0  0  0  0  0  0  0  0  0  0  0  0
   -3.1330   23.2490   -8.2510 C   0  0  0  0  0  0  0  0  0  0  0  0
   -4.9910   21.9300   -8.3010 C   0  0  2  0  0  0  0  0  0  0  0  0
   -4.5020   23.1280   -7.6130 C   0  0  2  0  0  0  0  0  0  0  0  0
   -5.3660   24.1610   -7.9200 O   0  0  0  0  0  0  0  0  0  0  0  0
   -5.9870   21.2090   -7.4300 C   0  0  0  0  0  0  0  0  0  0  0  0
   -6.0310   21.7130   -6.1410 O   0  0  0  0  0  0  0  0  0  0  0  0
  1  2  1  0
  2  3  1  0
  1  4  1  0
  1  5  1  0
  1  6  1  0
  7  2  1  1
  3  8  1  0
  7  9  1  0
  7 10  1  0
  9 11  1  0
 10 12  1  0
 11 12  1  0
 12 13  1  6
 11 14  1  1
 14 15  1  0
M  CHG  1   5  -1
M  END
>  <%Rank>  (1005) 
76.641221

>  <N_hits>  (1005) 
2

>  <submitter_name>  (1005) 
nan

>  <original SMILES>  (1005) 
nan

>  <∆G_unbound>  (1005) 
0.561229

>  <∆G_bound>  (1005) 
-4.502631

>  <regarded>  (1005) 
3EW5_1_B_α,mArh-5cb5_Q_0_Q_α

>  <ref_pdb>  (1005) 
nan

>  <smiles>  (1005) 
CCN(C1CC(O)C(CO)O1)[PH]([O-])(O)O

>  <submitter_email>  (1005) 
nan

>  <disregarded>  (1005) 


>  <LE>  (1005) 
-0.337591

>  <submitter_institution>  (1005) 
nan

>  <ref_mols>  (1005) 
3EW5_1_B,mArh-5cb5_Q_0_Q

>  <N_constrained_atoms>  (1005) 
14.0

>  <ref_url>  (1005) 
nan

>  <method>  (1005) 
nan

>  <comRMSD>  (1005) 
1.150593

>  <N_unconstrained_atoms>  (1005) 
1.0

>  <∆∆G>  (1005) 
-5.06386

>  <runtime>  (1005) 
25.624727

>  <generation_date>  (1005) 
nan

$$$$
mArh-5cms_N_13_N_β-mArh-5cms_R_17_R_α
     RDKit          3D

 17 17  0  0  0  0  0  0  0  0999 V2000
   -1.8510   20.7600   -8.1190 O   0  0  0  0  0  0  0  0  0  0  0  0
   -0.5020   19.9650   -7.7480 P   0  0  2  0  0  0  0  0  0  0  0  0
   -0.8010   19.4270   -6.2930 O   0  0  0  0  0  0  0  0  0  0  0  0
   -1.8670   21.8100   -9.0480 C   0  0  1  0  0  0  0  0  0  0  0  0
    0.7680   20.7530   -7.7770 O   0  0  0  0  0  0  0  0  0  0  0  0
   -0.4090   18.6450   -8.6710 O   0  0  0  0  0  0  0  0  0  0  0  0
   -2.8190   21.4900  -10.0570 O   0  0  0  0  0  0  0  0  0  0  0  0
   -2.2720   23.2200   -8.5500 C   0  0  1  0  0  0  0  0  0  0  0  0
   -1.5870   18.0790   -6.0710 P   0  0  0  0  0  0  0  0  0  0  0  0
   -1.3100   24.2350   -8.7800 O   0  0  0  0  0  0  0  0  0  0  0  0
   -4.0040   22.1530   -9.6570 C   0  0  2  0  0  0  0  0  0  0  0  0
   -3.5960   23.5260   -9.2750 C   0  0  2  0  0  0  0  0  0  0  0  0
   -0.4260   17.0090   -6.0360 O   0  0  0  0  0  0  0  0  0  0  0  0
   -2.7160   17.7670   -6.9570 O   0  0  0  0  0  0  0  0  0  0  0  0
   -1.9700   18.0830   -4.5380 O   0  0  0  0  0  0  0  0  0  0  0  0
   -4.4840   21.5660   -8.4780 O   0  0  0  0  0  0  0  0  0  0  0  0
   -3.5220   24.2970  -10.4770 O   0  0  0  0  0  0  0  0  0  0  0  0
  1  2  1  0
  2  3  1  0
  4  1  1  1
  2  5  2  0
  2  6  1  6
  4  7  1  0
  4  8  1  0
  3  9  1  0
  8 10  1  6
  7 11  1  0
  8 12  1  0
 11 12  1  0
  9 13  1  0
  9 14  2  0
  9 15  1  0
 11 16  1  1
 12 17  1  6
M  END
>  <%Rank>  (1006) 
76.717557

>  <N_hits>  (1006) 
2

>  <submitter_name>  (1006) 
nan

>  <original SMILES>  (1006) 
nan

>  <∆G_unbound>  (1006) 
1.974322

>  <∆G_bound>  (1006) 
-5.357516

>  <regarded>  (1006) 
mArh-5cms_N_13_N_β,mArh-5cms_R_17_R_α

>  <ref_pdb>  (1006) 
nan

>  <smiles>  (1006) 
O=P(O)(O)OP(=O)(O)OC1OC(O)C(O)C1O

>  <submitter_email>  (1006) 
nan

>  <disregarded>  (1006) 


>  <LE>  (1006) 
-0.431285

>  <submitter_institution>  (1006) 
nan

>  <ref_mols>  (1006) 
mArh-5cms_N_13_N,mArh-5cms_R_17_R

>  <N_constrained_atoms>  (1006) 
17.0

>  <ref_url>  (1006) 
nan

>  <method>  (1006) 
nan

>  <comRMSD>  (1006) 
1.306346

>  <N_unconstrained_atoms>  (1006) 
0.0

>  <∆∆G>  (1006) 
-7.331837

>  <runtime>  (1006) 
33.365934

>  <generation_date>  (1006) 
nan

$$$$
5CB5_0_Q_β-5CMS_0_R_α
     RDKit          3D

 17 17  0  0  0  0  0  0  0  0999 V2000
   -1.9970   20.4160   -8.3900 O   0  0  0  0  0  0  0  0  0  0  0  0
   -0.5660   19.9760   -7.6190 P   0  0  0  0  0  0  0  0  0  0  0  0
   -0.5790   18.8950   -6.4130 O   0  0  0  0  0  0  0  0  0  0  0  0
   -1.8810   21.4700   -9.2130 N   0  0  0  0  0  0  0  0  0  0  0  0
    0.7620   20.9220   -7.8920 O   0  0  0  0  0  0  0  0  0  0  0  0
   -0.1700   18.9290   -8.6770 O   0  0  0  0  0  0  0  0  0  0  0  0
   -1.1740   22.4910   -8.4870 C   0  0  0  0  0  0  0  0  0  0  0  0
   -3.2590   21.9840   -9.4980 C   0  0  1  0  0  0  0  0  0  0  0  0
   -1.7330   18.0950   -5.8350 P   0  0  0  0  0  0  0  0  0  0  0  0
   -4.1330   21.4930   -8.5500 O   0  0  0  0  0  0  0  0  0  0  0  0
   -3.2430   23.4620   -9.3150 C   0  0  1  0  0  0  0  0  0  0  0  0
   -1.9760   23.7530   -8.5510 C   0  0  2  0  0  0  0  0  0  0  0  0
   -0.8050   16.7960   -5.4650 O   0  0  0  0  0  0  0  0  0  0  0  0
   -2.5990   18.1610   -7.2030 O   0  0  0  0  0  0  0  0  0  0  0  0
   -2.0220   19.2010   -4.6620 O   0  0  0  0  0  0  0  0  0  0  0  0
   -1.2320   24.7160   -9.1400 O   0  0  0  0  0  0  0  0  0  0  0  0
   -3.4370   24.1390  -10.5040 O   0  0  0  0  0  0  0  0  0  0  0  0
  1  2  1  0
  2  3  1  0
  1  4  1  0
  2  5  1  0
  2  6  1  0
  4  7  1  0
  4  8  1  0
  3  9  1  0
  8 10  1  1
  8 11  1  0
  7 12  1  0
 11 12  1  0
  9 13  1  0
  9 14  1  0
  9 15  1  0
 12 16  1  6
 11 17  1  6
M  CHG  2   5  -1  14  -1
M  END
>  <%Rank>  (1007) 
76.793893

>  <N_hits>  (1007) 
2

>  <submitter_name>  (1007) 
nan

>  <original SMILES>  (1007) 
nan

>  <∆G_unbound>  (1007) 
2.25323

>  <∆G_bound>  (1007) 
-3.364698

>  <regarded>  (1007) 
5CB5_0_Q_β,5CMS_0_R_α

>  <ref_pdb>  (1007) 
nan

>  <smiles>  (1007) 
[O-][PH](O)(O)O[PH]([O-])(O)ON1CC(O)C(O)C1O

>  <submitter_email>  (1007) 
nan

>  <disregarded>  (1007) 


>  <LE>  (1007) 
-0.330466

>  <submitter_institution>  (1007) 
nan

>  <ref_mols>  (1007) 
5CB5_0_Q,5CMS_0_R

>  <N_constrained_atoms>  (1007) 
17.0

>  <ref_url>  (1007) 
nan

>  <method>  (1007) 
nan

>  <comRMSD>  (1007) 
1.256278

>  <N_unconstrained_atoms>  (1007) 
0.0

>  <∆∆G>  (1007) 
-5.617928

>  <runtime>  (1007) 
27.123302

>  <generation_date>  (1007) 
nan

$$$$
mArh-5cms_I_8_I_α-mArh-3gqe_A_0_A_α
     RDKit          3D

 19 19  0  0  0  0  0  0  0  0999 V2000
   -1.7930   20.5330   -7.8380 C   0  0  2  0  0  0  0  0  0  0  0  0
   -2.2080   20.1940   -6.4390 N   0  0  0  0  0  0  0  0  0  0  0  0
   -2.3870   18.7070   -6.5160 C   0  0  0  0  0  0  0  0  0  0  0  0
   -0.3130   20.4560   -8.2180 C   0  0  0  0  0  0  0  0  0  0  0  0
   -2.6950   21.4570   -8.7940 C   0  0  1  0  0  0  0  0  0  0  0  0
   -3.4810   20.8590   -6.0790 C   0  0  0  0  0  0  0  0  0  0  0  0
   -0.0270   19.1200   -8.6410 O   0  0  0  0  0  0  0  0  0  0  0  0
   -4.1390   21.3900   -8.5720 O   0  0  0  0  0  0  0  0  0  0  0  0
   -2.5650   22.9300   -8.8920 C   0  0  1  0  0  0  0  0  0  0  0  0
   -1.1920   23.1810   -9.0590 O   0  0  0  0  0  0  0  0  0  0  0  0
   -2.2300   17.9270   -5.2240 C   0  0  0  0  0  0  0  0  0  0  0  0
   -3.6570   22.3360   -6.4290 C   0  0  0  0  0  0  0  0  0  0  0  0
   -4.7180   22.4690   -9.3650 C   0  0  2  0  0  0  0  0  0  0  0  0
   -3.5620   23.0750  -10.0800 C   0  0  2  0  0  0  0  0  0  0  0  0
   -5.3510   23.4650   -8.5860 O   0  0  0  0  0  0  0  0  0  0  0  0
   -3.5280   22.2190  -11.2210 O   0  0  0  0  0  0  0  0  0  0  0  0
   -4.8510   22.4910   -7.1970 O   0  0  0  0  0  0  0  0  0  0  0  0
   -2.6740   16.8080   -4.9800 O   0  0  0  0  0  0  0  0  0  0  0  0
   -1.5940   18.6120   -4.2840 O   0  0  0  0  0  0  0  0  0  0  0  0
  1  2  1  0
  2  3  1  0
  1  4  1  1
  1  5  1  0
  2  6  1  0
  4  7  1  0
  5  8  1  1
  5  9  1  0
  9 10  1  6
  3 11  1  0
  6 12  1  0
  8 13  1  0
  9 14  1  0
 13 14  1  0
 13 15  1  1
 14 16  1  6
 12 17  1  0
 11 18  2  0
 11 19  1  0
M  END
>  <%Rank>  (1008) 
76.870229

>  <N_hits>  (1008) 
2

>  <submitter_name>  (1008) 
nan

>  <original SMILES>  (1008) 
nan

>  <∆G_unbound>  (1008) 
3.290034

>  <∆G_bound>  (1008) 
1.305169

>  <regarded>  (1008) 
mArh-5cms_I_8_I_α,mArh-3gqe_A_0_A_α

>  <ref_pdb>  (1008) 
nan

>  <smiles>  (1008) 
O=C(O)CN(CCO)C(CO)C1OC(O)C(O)C1O

>  <submitter_email>  (1008) 
nan

>  <disregarded>  (1008) 


>  <LE>  (1008) 
-0.104467

>  <submitter_institution>  (1008) 
nan

>  <ref_mols>  (1008) 
mArh-5cms_I_8_I,mArh-3gqe_A_0_A

>  <N_constrained_atoms>  (1008) 
19.0

>  <ref_url>  (1008) 
nan

>  <method>  (1008) 
nan

>  <comRMSD>  (1008) 
1.186806

>  <N_unconstrained_atoms>  (1008) 
0.0

>  <∆∆G>  (1008) 
-1.984864

>  <runtime>  (1008) 
29.632901

>  <generation_date>  (1008) 
nan

$$$$
mArh-x0626_0_A_α-mArh-x0104_0_A_β
     RDKit          3D

 19 20  0  0  0  0  0  0  0  0999 V2000
   -4.9780   13.2040    1.5840 N   0  0  0  0  0  0  0  0  0  0  0  0
   -6.2690   13.2090    1.0530 C   0  0  0  0  0  0  0  0  0  0  0  0
   -6.6220   12.2940    0.3260 O   0  0  0  0  0  0  0  0  0  0  0  0
   -3.7550   13.6410    1.0450 C   0  0  0  0  0  0  0  0  0  0  0  0
   -7.1660   14.4030    1.2590 C   0  0  2  0  0  0  0  0  0  0  0  0
   -2.6440   14.1220    1.6360 N   0  0  0  0  0  0  0  0  0  0  0  0
   -3.6580   13.5260   -0.6580 S   0  0  0  0  0  0  0  0  0  0  0  0
   -8.5310   14.3940    0.5620 C   0  0  0  0  0  0  0  0  0  0  0  0
   -2.0570   14.1400   -0.6280 C   0  0  0  0  0  0  0  0  0  0  0  0
   -1.6760   14.3950    0.6700 C   0  0  0  0  0  0  0  0  0  0  0  0
   -6.0930   14.9680    0.4900 C   0  0  0  0  0  0  0  0  0  0  0  0
   -0.3520   14.9110    1.0760 C   0  0  0  0  0  0  0  0  0  0  0  0
   -5.0420   15.4530    1.2290 C   0  0  0  0  0  0  0  0  0  0  0  0
   -6.0830   14.9710   -0.8940 C   0  0  0  0  0  0  0  0  0  0  0  0
   -3.9780   15.9260    0.5530 C   0  0  0  0  0  0  0  0  0  0  0  0
   -4.9520   15.4610   -1.4770 C   0  0  0  0  0  0  0  0  0  0  0  0
   -4.8930   15.4470   -2.8410 O   0  0  0  0  0  0  0  0  0  0  0  0
   -3.9040   15.9270   -0.7830 N   0  0  0  0  0  0  0  0  0  0  0  0
   -3.5910   15.0880   -3.2830 C   0  0  0  0  0  0  0  0  0  0  0  0
  1  2  1  0
  2  3  2  0
  1  4  1  0
  2  5  1  0
  4  6  2  0
  4  7  1  0
  5  8  1  6
  7  9  1  0
  6 10  1  0
  9 10  2  0
  5 11  1  0
 10 12  1  0
 11 13  2  0
 11 14  1  0
 13 15  1  0
 14 16  2  0
 16 17  1  0
 15 18  2  0
 16 18  1  0
 17 19  1  0
M  END
>  <%Rank>  (1009) 
76.946565

>  <N_hits>  (1009) 
2

>  <submitter_name>  (1009) 
nan

>  <original SMILES>  (1009) 
nan

>  <∆G_unbound>  (1009) 
0.835031

>  <∆G_bound>  (1009) 
-0.920566

>  <regarded>  (1009) 
mArh-x0626_0_A_α,mArh-x0104_0_A_β

>  <ref_pdb>  (1009) 
nan

>  <smiles>  (1009) 
COc1cc(C(C)C(=O)Nc2nc(C)cs2)ccn1

>  <submitter_email>  (1009) 
nan

>  <disregarded>  (1009) 


>  <LE>  (1009) 
-0.0924

>  <submitter_institution>  (1009) 
nan

>  <ref_mols>  (1009) 
mArh-x0626_0_A,mArh-x0104_0_A

>  <N_constrained_atoms>  (1009) 
19.0

>  <ref_url>  (1009) 
nan

>  <method>  (1009) 
nan

>  <comRMSD>  (1009) 
1.188306

>  <N_unconstrained_atoms>  (1009) 
0.0

>  <∆∆G>  (1009) 
-1.755597

>  <runtime>  (1009) 
36.778837

>  <generation_date>  (1009) 
nan

$$$$
5LW0_0_A_β-mArh-3gqe_A_0_A_α
     RDKit          3D

 15 14  0  0  0  0  0  0  0  0999 V2000
   -1.2340   19.8730   -8.8830 O   0  0  0  0  0  0  0  0  0  0  0  0
   -0.3910   19.3310   -7.7850 P   0  0  0  0  0  0  0  0  0  0  0  0
   -1.6090   18.7820   -6.7440 N   0  0  0  0  0  0  0  0  0  0  0  0
    0.1100   18.2730   -8.9480 O   0  0  0  0  0  0  0  0  0  0  0  0
    0.3380   20.7530   -7.5980 O   0  0  0  0  0  0  0  0  0  0  0  0
   -1.6300   17.3940   -6.0750 P   0  0  0  0  0  0  0  0  0  0  0  0
   -2.1530   19.9290   -6.2230 N   0  0  0  0  0  0  0  0  0  0  0  0
    0.0200   17.1550   -6.2890 O   0  0  0  0  0  0  0  0  0  0  0  0
   -2.7790   16.6710   -6.8770 O   0  0  0  0  0  0  0  0  0  0  0  0
   -2.0680   17.7850   -4.6320 C   0  0  0  0  0  0  0  0  0  0  0  0
   -3.3500   20.5520   -6.5360 C   0  0  0  0  0  0  0  0  0  0  0  0
   -3.2240   21.8090   -7.3850 C   0  0  0  0  0  0  0  0  0  0  0  0
   -2.8470   16.9760   -4.0290 O   0  0  0  0  0  0  0  0  0  0  0  0
   -1.6890   18.9300   -4.0750 O   0  0  0  0  0  0  0  0  0  0  0  0
   -4.4630   22.2210   -7.8740 O   0  0  0  0  0  0  0  0  0  0  0  0
  1  2  1  0
  2  3  1  0
  2  4  1  0
  2  5  1  0
  3  6  1  0
  3  7  1  0
  6  8  1  0
  6  9  1  0
  6 10  1  0
  7 11  1  0
 11 12  1  0
 10 13  2  0
 10 14  1  0
 12 15  1  0
M  CHG  2   4  -1   9  -1
M  END
>  <%Rank>  (1010) 
77.022901

>  <N_hits>  (1010) 
2

>  <submitter_name>  (1010) 
nan

>  <original SMILES>  (1010) 
nan

>  <∆G_unbound>  (1010) 
2.561966

>  <∆G_bound>  (1010) 
1.902566

>  <regarded>  (1010) 
5LW0_0_A_β,mArh-3gqe_A_0_A_α

>  <ref_pdb>  (1010) 
nan

>  <smiles>  (1010) 
O=C(O)[PH]([O-])(O)N(NCCO)[PH]([O-])(O)O

>  <submitter_email>  (1010) 
nan

>  <disregarded>  (1010) 


>  <LE>  (1010) 
-0.04396

>  <submitter_institution>  (1010) 
nan

>  <ref_mols>  (1010) 
5LW0_0_A,mArh-3gqe_A_0_A

>  <N_constrained_atoms>  (1010) 
15.0

>  <ref_url>  (1010) 
nan

>  <method>  (1010) 
nan

>  <comRMSD>  (1010) 
1.076194

>  <N_unconstrained_atoms>  (1010) 
0.0

>  <∆∆G>  (1010) 
-0.6594

>  <runtime>  (1010) 
29.959641

>  <generation_date>  (1010) 
nan

$$$$
6YWK_0_E_α-mArh-x0910_1_A_α
     RDKit          3D

 27 28  0  0  0  0  0  0  0  0999 V2000
    1.1710   20.8500   -7.5300 O   0  0  0  0  0  0  0  0  0  0  0  0
    0.0100   19.7430   -7.3520 S   0  0  0  0  0  0  0  0  0  0  0  0
    0.0640   19.0220   -5.8990 O   0  0  0  0  0  0  0  0  0  0  0  0
    0.0440   18.6760   -8.5550 O   0  0  0  0  0  0  0  0  0  0  0  0
   -1.5790   20.6030   -7.2930 C   0  0  0  0  0  0  0  0  0  0  0  0
   -1.7500   21.5850   -8.4390 C   0  0  0  0  0  0  0  0  0  0  0  0
    0.6510   17.7540   -5.6040 C   0  0  0  0  0  0  0  0  0  0  0  0
   -0.4330   16.6940   -5.3250 C   0  0  0  0  0  0  0  0  0  0  0  0
   -2.8860   22.5500   -8.3470 N   0  0  0  0  0  0  0  0  0  0  0  0
   -0.9760   16.7060   -3.8840 C   0  0  0  0  0  0  0  0  0  0  0  0
   -2.9360   23.1940   -7.0400 C   0  0  0  0  0  0  0  0  0  0  0  0
   -4.1990   21.9660   -8.5640 C   0  0  0  0  0  0  0  0  0  0  0  0
   -1.7930   15.4640   -3.4210 C   0  0  0  0  0  0  0  0  0  0  0  0
   -4.2020   23.9760   -6.6180 C   0  0  0  0  0  0  0  0  0  0  0  0
   -5.0670   21.8940   -7.2910 C   0  0  0  0  0  0  0  0  0  0  0  0
   -3.1320   15.8070   -2.7350 C   0  0  0  0  0  0  0  0  0  0  0  0
   -5.4440   23.2290   -6.8750 N   0  0  0  0  0  0  0  0  0  0  0  0
   -6.1170   23.8250   -8.0300 C   0  0  0  0  0  0  0  0  0  0  0  0
   -4.1470   14.6970   -2.4220 C   0  0  0  0  0  0  0  0  0  0  0  0
   -6.6450   22.8470   -9.0800 C   0  0  0  0  0  0  0  0  0  0  0  0
   -4.8400   14.8110   -1.1260 N   0  0  0  0  0  0  0  0  0  0  0  0
   -7.9680   23.1870   -9.4770 O   0  0  0  0  0  0  0  0  0  0  0  0
   -6.1400   14.4390   -0.9760 N   0  0  0  0  0  0  0  0  0  0  0  0
   -4.3420   15.2550    0.0540 C   0  0  0  0  0  0  0  0  0  0  0  0
   -6.3400   14.6720    0.3210 C   0  0  0  0  0  0  0  0  0  0  0  0
   -5.2630   15.1720    0.9880 N   0  0  0  0  0  0  0  0  0  0  0  0
   -7.4640   14.4610    1.0070 N   0  0  0  0  0  0  0  0  0  0  0  0
  2  1  1  0
  2  3  1  0
  2  4  1  0
  2  5  1  0
  5  6  1  0
  3  7  1  0
  7  8  1  0
  6  9  1  0
  8 10  1  0
  9 11  1  0
  9 12  1  0
 10 13  1  0
 11 14  1  0
 12 15  1  0
 13 16  1  0
 14 17  1  0
 15 17  1  0
 17 18  1  0
 16 19  1  0
 18 20  1  0
 19 21  1  0
 20 22  1  0
 21 23  1  0
 21 24  1  0
 23 25  2  0
 24 26  2  0
 25 26  1  0
 25 27  1  0
M  END
>  <%Rank>  (1011) 
77.099237

>  <N_hits>  (1011) 
2

>  <submitter_name>  (1011) 
nan

>  <original SMILES>  (1011) 
nan

>  <∆G_unbound>  (1011) 
0.177302

>  <∆G_bound>  (1011) 
-10.546153

>  <regarded>  (1011) 
6YWK_0_E_α,mArh-x0910_1_A_α

>  <ref_pdb>  (1011) 
nan

>  <smiles>  (1011) 
Nc1ncn(CCCCCCOS(O)(O)CCN2CCN(CCO)CC2)n1

>  <submitter_email>  (1011) 
nan

>  <disregarded>  (1011) 


>  <LE>  (1011) 
-0.397165

>  <submitter_institution>  (1011) 
nan

>  <ref_mols>  (1011) 
6YWK_0_E,mArh-x0910_1_A

>  <N_constrained_atoms>  (1011) 
21.0

>  <ref_url>  (1011) 
nan

>  <method>  (1011) 
nan

>  <comRMSD>  (1011) 
1.236771

>  <N_unconstrained_atoms>  (1011) 
6.0

>  <∆∆G>  (1011) 
-10.723455

>  <runtime>  (1011) 
71.016954

>  <generation_date>  (1011) 
nan

$$$$
mArh-5lw0_A_0_A_α-5LW0_0_A_β
     RDKit          3D

 17 17  0  0  0  0  0  0  0  0999 V2000
   -1.9250   21.2800   -7.8630 C   0  0  0  0  0  0  0  0  0  0  0  0
   -0.8510   19.8280   -7.9100 P   0  0  0  0  0  0  0  0  0  0  0  0
   -1.8080   18.7800   -7.3170 O   0  0  0  0  0  0  0  0  0  0  0  0
   -3.2990   21.3470   -8.5710 C   0  0  1  0  0  0  0  0  0  0  0  0
   -0.5730   18.7380   -9.0400 O   0  0  0  0  0  0  0  0  0  0  0  0
    0.1670   19.5440   -6.6020 O   0  0  0  0  0  0  0  0  0  0  0  0
   -4.2500   20.4920   -8.0000 O   0  0  0  0  0  0  0  0  0  0  0  0
   -4.0470   22.6690   -8.6320 C   0  0  1  0  0  0  0  0  0  0  0  0
   -4.8050   22.6710   -9.8040 O   0  0  0  0  0  0  0  0  0  0  0  0
   -1.5480   17.8950   -5.9440 P   0  0  0  0  0  0  0  0  0  0  0  0
   -4.9890   21.1670   -7.0790 C   0  0  1  0  0  0  0  0  0  0  0  0
   -5.0710   22.5810   -7.5090 C   0  0  2  0  0  0  0  0  0  0  0  0
   -6.2840   20.6980   -6.9710 O   0  0  0  0  0  0  0  0  0  0  0  0
   -6.3130   22.8240   -8.1370 O   0  0  0  0  0  0  0  0  0  0  0  0
   -0.4190   16.6550   -5.8260 O   0  0  0  0  0  0  0  0  0  0  0  0
   -2.5890   16.9180   -6.4850 O   0  0  0  0  0  0  0  0  0  0  0  0
   -2.2600   18.2740   -4.5970 O   0  0  0  0  0  0  0  0  0  0  0  0
  1  2  1  0
  2  3  1  0
  4  1  1  1
  2  5  1  0
  2  6  1  0
  4  7  1  0
  4  8  1  0
  8  9  1  6
  3 10  1  0
  7 11  1  0
  8 12  1  0
 11 12  1  0
 11 13  1  6
 12 14  1  6
 10 15  1  0
 10 16  1  0
 10 17  1  0
M  CHG  2   5  -1  16  -1
M  END
>  <%Rank>  (1012) 
77.175573

>  <N_hits>  (1012) 
2

>  <submitter_name>  (1012) 
nan

>  <original SMILES>  (1012) 
nan

>  <∆G_unbound>  (1012) 
1.818629

>  <∆G_bound>  (1012) 
-3.926634

>  <regarded>  (1012) 
mArh-5lw0_A_0_A_α,5LW0_0_A_β

>  <ref_pdb>  (1012) 
nan

>  <smiles>  (1012) 
[O-][PH](O)(O)O[PH]([O-])(O)CC1OC(O)C(O)C1O

>  <submitter_email>  (1012) 
nan

>  <disregarded>  (1012) 


>  <LE>  (1012) 
-0.337957

>  <submitter_institution>  (1012) 
nan

>  <ref_mols>  (1012) 
mArh-5lw0_A_0_A,5LW0_0_A

>  <N_constrained_atoms>  (1012) 
17.0

>  <ref_url>  (1012) 
nan

>  <method>  (1012) 
nan

>  <comRMSD>  (1012) 
1.272039

>  <N_unconstrained_atoms>  (1012) 
0.0

>  <∆∆G>  (1012) 
-5.745263

>  <runtime>  (1012) 
32.089205

>  <generation_date>  (1012) 
nan

$$$$
mArh-5lw0_B_1_B_α-5CB5_0_E_γ
     RDKit          3D

 22 23  0  0  0  0  0  0  0  0999 V2000
   -2.3670   21.2850   -8.9600 C   0  0  0  0  0  0  0  0  0  0  0  0
   -3.6970   21.7700   -8.4770 C   0  0  2  0  0  0  0  0  0  0  0  0
   -4.4330   20.7000   -7.9370 O   0  0  0  0  0  0  0  0  0  0  0  0
   -4.7560   22.4980   -9.3540 C   0  0  1  0  0  0  0  0  0  0  0  0
   -4.8340   22.0990  -10.7170 O   0  0  0  0  0  0  0  0  0  0  0  0
   -5.2810   21.6330   -7.3900 C   0  0  1  0  0  0  0  0  0  0  0  0
   -6.0330   22.0770   -8.6080 C   0  0  1  0  0  0  0  0  0  0  0  0
   -5.8310   21.2550   -6.1790 O   0  0  0  0  0  0  0  0  0  0  0  0
   -6.8800   23.1950   -8.4540 O   0  0  0  0  0  0  0  0  0  0  0  0
   -4.5640   21.2710   -5.4920 C   0  0  0  0  0  0  0  0  0  0  0  0
   -3.4870   20.5090   -6.2900 C   0  0  0  0  0  0  0  0  0  0  0  0
   -2.2430   20.0600   -5.5330 C   0  0  0  0  0  0  0  0  0  0  0  0
   -1.7500   18.6750   -5.9880 C   0  0  0  0  0  0  0  0  0  0  0  0
   -1.0520   17.8900   -4.8710 C   0  0  0  0  0  0  0  0  0  0  0  0
    0.2240   17.1450   -5.2870 C   0  0  0  0  0  0  0  0  0  0  0  0
    0.5450   15.8790   -4.4550 C   0  0  1  0  0  0  0  0  0  0  0  0
   -0.2520   15.9020   -3.2480 O   0  0  0  0  0  0  0  0  0  0  0  0
    0.2690   14.5040   -5.0910 C   0  0  1  0  0  0  0  0  0  0  0  0
    1.2460   13.5060   -4.8730 O   0  0  0  0  0  0  0  0  0  0  0  0
   -0.9700   14.6720   -3.1120 C   0  0  0  0  0  0  0  0  0  0  0  0
   -1.0560   14.0680   -4.4940 C   0  0  2  0  0  0  0  0  0  0  0  0
   -1.1400   12.6510   -4.4910 O   0  0  0  0  0  0  0  0  0  0  0  0
  2  1  1  6
  2  3  1  0
  2  4  1  0
  4  5  1  6
  3  6  1  0
  4  7  1  0
  6  7  1  0
  6  8  1  1
  7  9  1  1
  8 10  1  0
 10 11  1  0
 11 12  1  0
 12 13  1  0
 13 14  1  0
 14 15  1  0
 16 15  1  6
 16 17  1  0
 16 18  1  0
 18 19  1  1
 17 20  1  0
 18 21  1  0
 20 21  1  0
 21 22  1  1
M  END
>  <%Rank>  (1013) 
77.251908

>  <N_hits>  (1013) 
2

>  <submitter_name>  (1013) 
nan

>  <original SMILES>  (1013) 
nan

>  <∆G_unbound>  (1013) 
0.187336

>  <∆G_bound>  (1013) 
-6.520142

>  <regarded>  (1013) 
mArh-5lw0_B_1_B_α,5CB5_0_E_γ

>  <ref_pdb>  (1013) 
nan

>  <smiles>  (1013) 
CC1OC(OCCCCCCC2OCC(O)C2O)C(O)C1O

>  <submitter_email>  (1013) 
nan

>  <disregarded>  (1013) 


>  <LE>  (1013) 
-0.304885

>  <submitter_institution>  (1013) 
nan

>  <ref_mols>  (1013) 
mArh-5lw0_B_1_B,5CB5_0_E

>  <N_constrained_atoms>  (1013) 
17.0

>  <ref_url>  (1013) 
nan

>  <method>  (1013) 
nan

>  <comRMSD>  (1013) 
1.112223

>  <N_unconstrained_atoms>  (1013) 
5.0

>  <∆∆G>  (1013) 
-6.707478

>  <runtime>  (1013) 
45.686378

>  <generation_date>  (1013) 
nan

$$$$
5CB5_0_B_α-mArh-EU0815_0_A_β
     RDKit          3D

 22 23  0  0  0  0  0  0  0  0999 V2000
   -2.1180   21.3660   -8.5940 C   0  0  0  0  0  0  0  0  0  0  0  0
   -3.4320   22.0150   -9.0360 C   0  0  1  0  0  0  0  0  0  0  0  0
   -4.5270   21.3540   -8.4140 O   0  0  0  0  0  0  0  0  0  0  0  0
   -3.6020   23.4290   -8.5070 C   0  0  1  0  0  0  0  0  0  0  0  0
   -4.5190   24.1210   -9.3760 O   0  0  0  0  0  0  0  0  0  0  0  0
   -4.2910   21.6520   -7.0510 C   0  0  2  0  0  0  0  0  0  0  0  0
   -4.2470   23.1960   -7.1200 C   0  0  2  0  0  0  0  0  0  0  0  0
   -2.9820   21.0560   -6.8060 O   0  0  0  0  0  0  0  0  0  0  0  0
   -5.5180   23.8480   -7.0020 O   0  0  0  0  0  0  0  0  0  0  0  0
   -2.7210   20.0750   -5.7540 C   0  0  0  0  0  0  0  0  0  0  0  0
   -2.4970   18.5830   -6.2700 C   0  0  0  0  0  0  0  0  0  0  0  0
   -2.2210   17.3990   -5.2420 C   0  0  0  0  0  0  0  0  0  0  0  0
   -3.2110   16.1430   -5.1230 C   0  0  0  0  0  0  0  0  0  0  0  0
   -3.4950   15.4970   -3.6790 C   0  0  0  0  0  0  0  0  0  0  0  0
   -4.8520   15.5940   -3.0390 O   0  0  0  0  0  0  0  0  0  0  0  0
   -4.9290   15.2270   -1.6690 C   0  0  0  0  0  0  0  0  0  0  0  0
   -3.7550   14.7590   -1.0830 C   0  0  0  0  0  0  0  0  0  0  0  0
   -6.0930   15.2970   -0.8650 C   0  0  0  0  0  0  0  0  0  0  0  0
   -2.5070   14.6560   -1.8850 C   0  0  0  0  0  0  0  0  0  0  0  0
   -6.0450   14.9000    0.4890 C   0  0  0  0  0  0  0  0  0  0  0  0
   -3.7220   14.3740    0.2640 C   0  0  0  0  0  0  0  0  0  0  0  0
   -4.8610   14.4440    1.0510 C   0  0  0  0  0  0  0  0  0  0  0  0
  2  1  1  1
  2  3  1  0
  2  4  1  0
  4  5  1  6
  3  6  1  0
  4  7  1  0
  6  7  1  0
  6  8  1  6
  7  9  1  6
  8 10  1  0
 10 11  1  0
 11 12  1  0
 12 13  1  0
 13 14  1  0
 14 15  1  0
 15 16  1  0
 16 17  2  0
 16 18  1  0
 17 19  1  0
 18 20  2  0
 17 21  1  0
 20 22  1  0
 21 22  2  0
M  END
>  <%Rank>  (1014) 
77.328244

>  <N_hits>  (1014) 
2

>  <submitter_name>  (1014) 
nan

>  <original SMILES>  (1014) 
nan

>  <∆G_unbound>  (1014) 
0.266782

>  <∆G_bound>  (1014) 
-6.984403

>  <regarded>  (1014) 
5CB5_0_B_α,mArh-EU0815_0_A_β

>  <ref_pdb>  (1014) 
nan

>  <smiles>  (1014) 
Cc1ccccc1OCCCCCOC1OC(C)C(O)C1O

>  <submitter_email>  (1014) 
nan

>  <disregarded>  (1014) 


>  <LE>  (1014) 
-0.329599

>  <submitter_institution>  (1014) 
nan

>  <ref_mols>  (1014) 
5CB5_0_B,mArh-EU0815_0_A

>  <N_constrained_atoms>  (1014) 
17.0

>  <ref_url>  (1014) 
nan

>  <method>  (1014) 
nan

>  <comRMSD>  (1014) 
1.132187

>  <N_unconstrained_atoms>  (1014) 
5.0

>  <∆∆G>  (1014) 
-7.251185

>  <runtime>  (1014) 
49.487545

>  <generation_date>  (1014) 
nan

$$$$
5LW0_1_B_δ-mArh-x0371_0_A_β
     RDKit          3D

 15 17  0  0  0  0  0  0  0  0999 V2000
   -4.0730   15.6070    1.9320 N   0  0  0  0  0  0  0  0  0  0  0  0
   -2.9840   14.7440    1.5480 C   0  0  1  0  0  0  0  0  0  0  0  0
   -3.2670   13.9550    0.3040 C   0  0  2  0  0  0  0  0  0  0  0  0
   -1.7960   15.5090    1.4550 N   0  0  0  0  0  0  0  0  0  0  0  0
   -2.0570   13.8060   -0.6480 C   0  0  1  0  0  0  0  0  0  0  0  0
   -4.4950   14.2010   -0.5720 C   0  0  1  0  0  0  0  0  0  0  0  0
   -0.6880   14.6710    1.1010 C   0  0  0  0  0  0  0  0  0  0  0  0
   -2.5130   14.3760   -1.8950 N   0  0  0  0  0  0  0  0  0  0  0  0
   -3.9190   13.9290   -1.9700 C   0  0  0  0  0  0  0  0  0  0  0  0
   -0.8170   14.4620   -0.3060 N   0  0  0  0  0  0  0  0  0  0  0  0
   -5.6250   13.3240   -0.0760 N   0  0  0  0  0  0  0  0  0  0  0  0
   -5.2140   15.5010   -0.6140 C   0  0  0  0  0  0  0  0  0  0  0  0
   -6.6370   14.1190    0.0860 C   0  0  0  0  0  0  0  0  0  0  0  0
   -6.4490   15.4060   -0.2610 N   0  0  0  0  0  0  0  0  0  0  0  0
   -7.9810   13.7290    0.6280 C   0  0  0  0  0  0  0  0  0  0  0  0
  2  1  1  6
  3  2  1  1
  2  4  1  0
  3  5  1  0
  3  6  1  0
  4  7  1  0
  5  8  1  6
  6  9  1  6
  8  9  1  0
  5 10  1  0
  7 10  1  0
  6 11  1  0
  6 12  1  0
 11 13  2  0
 12 14  2  0
 13 14  1  0
 13 15  1  0
M  END
>  <%Rank>  (1015) 
77.40458

>  <N_hits>  (1015) 
2

>  <submitter_name>  (1015) 
nan

>  <original SMILES>  (1015) 
nan

>  <∆G_unbound>  (1015) 
1.700197

>  <∆G_bound>  (1015) 
-0.96239

>  <regarded>  (1015) 
5LW0_1_B_δ,mArh-x0371_0_A_β

>  <ref_pdb>  (1015) 
nan

>  <smiles>  (1015) 
CC1=NC2(C=N1)CNC1NCNC(N)C12

>  <submitter_email>  (1015) 
nan

>  <disregarded>  (1015) 


>  <LE>  (1015) 
-0.177506

>  <submitter_institution>  (1015) 
nan

>  <ref_mols>  (1015) 
5LW0_1_B,mArh-x0371_0_A

>  <N_constrained_atoms>  (1015) 
15.0

>  <ref_url>  (1015) 
nan

>  <method>  (1015) 
nan

>  <comRMSD>  (1015) 
1.157155

>  <N_unconstrained_atoms>  (1015) 
0.0

>  <∆∆G>  (1015) 
-2.662587

>  <runtime>  (1015) 
27.048028

>  <generation_date>  (1015) 
nan

$$$$
5CB5_0_N_β-5LW0_0_A_β
     RDKit          3D

 11 10  0  0  0  0  0  0  0  0999 V2000
   -2.1530   20.9500   -8.1290 O   0  0  0  0  0  0  0  0  0  0  0  0
   -0.8040   20.1150   -7.9650 P   0  0  0  0  0  0  0  0  0  0  0  0
   -1.0120   19.7390   -6.5040 O   0  0  0  0  0  0  0  0  0  0  0  0
    0.6440   20.8510   -7.6620 O   0  0  0  0  0  0  0  0  0  0  0  0
   -0.7760   18.4930   -8.2710 O   0  0  0  0  0  0  0  0  0  0  0  0
   -1.5340   18.3980   -5.9400 P   0  0  0  0  0  0  0  0  0  0  0  0
    0.1550   18.3280   -9.1170 O   0  0  0  0  0  0  0  0  0  0  0  0
   -1.9640   17.0510   -5.3250 O   0  0  0  0  0  0  0  0  0  0  0  0
   -2.5900   18.1830   -7.1470 O   0  0  0  0  0  0  0  0  0  0  0  0
   -2.0840   19.2280   -4.6450 O   0  0  0  0  0  0  0  0  0  0  0  0
   -1.1140   16.0530   -5.3260 O   0  0  0  0  0  0  0  0  0  0  0  0
  1  2  1  0
  2  3  1  0
  2  4  1  0
  2  5  1  0
  3  6  1  0
  5  7  1  0
  6  8  1  0
  6  9  1  0
  6 10  1  0
  8 11  1  0
M  CHG  3   4  -1   7  -1   9  -1
M  END
>  <%Rank>  (1016) 
77.480916

>  <N_hits>  (1016) 
2

>  <submitter_name>  (1016) 
nan

>  <original SMILES>  (1016) 
nan

>  <∆G_unbound>  (1016) 
0.750913

>  <∆G_bound>  (1016) 
-3.995336

>  <regarded>  (1016) 
5CB5_0_N_β,5LW0_0_A_β

>  <ref_pdb>  (1016) 
nan

>  <smiles>  (1016) 
[O-]O[PH]([O-])(O)O[PH]([O-])(O)OO

>  <submitter_email>  (1016) 
nan

>  <disregarded>  (1016) 


>  <LE>  (1016) 
-0.431477

>  <submitter_institution>  (1016) 
nan

>  <ref_mols>  (1016) 
5CB5_0_N,5LW0_0_A

>  <N_constrained_atoms>  (1016) 
11.0

>  <ref_url>  (1016) 
nan

>  <method>  (1016) 
nan

>  <comRMSD>  (1016) 
1.1763

>  <N_unconstrained_atoms>  (1016) 
0.0

>  <∆∆G>  (1016) 
-4.746249

>  <runtime>  (1016) 
28.318125

>  <generation_date>  (1016) 
nan

$$$$
mArh-mac-194_0_A_α-mArh-5cb5_I_0_I_α
     RDKit          3D

 26 28  0  0  0  0  0  0  0  0999 V2000
   -7.5000   14.5420    2.3500 N   0  0  0  0  0  0  0  0  0  0  0  0
   -6.6090   14.6070    1.3200 C   0  0  0  0  0  0  0  0  0  0  0  0
   -5.3600   14.5560    1.6460 N   0  0  0  0  0  0  0  0  0  0  0  0
   -7.0740   14.7270    0.0030 N   0  0  0  0  0  0  0  0  0  0  0  0
   -6.1800   14.8590   -1.0820 C   0  0  0  0  0  0  0  0  0  0  0  0
   -4.4170   14.6050    0.6170 C   0  0  0  0  0  0  0  0  0  0  0  0
   -6.2060   15.0520   -2.3810 N   0  0  0  0  0  0  0  0  0  0  0  0
   -4.7710   14.7490   -0.7100 C   0  0  0  0  0  0  0  0  0  0  0  0
   -3.0610   14.5010    0.9270 C   0  0  0  0  0  0  0  0  0  0  0  0
   -4.7650   15.0840   -2.8620 C   0  0  0  0  0  0  0  0  0  0  0  0
   -2.0970   14.5390   -0.0880 C   0  0  0  0  0  0  0  0  0  0  0  0
   -3.8200   14.7880   -1.7230 C   0  0  0  0  0  0  0  0  0  0  0  0
   -4.3320   15.0200   -4.3770 C   0  0  0  0  0  0  0  0  0  0  0  0
   -2.4810   14.6830   -1.4140 C   0  0  0  0  0  0  0  0  0  0  0  0
   -3.1250   15.9910   -4.7690 C   0  0  0  0  0  0  0  0  0  0  0  0
   -3.2880   16.7280   -6.1350 C   0  0  0  0  0  0  0  0  0  0  0  0
   -2.7690   18.2450   -6.3820 C   0  0  0  0  0  0  0  0  0  0  0  0
   -3.8190   19.2820   -6.7920 O   0  0  0  0  0  0  0  0  0  0  0  0
   -3.4460   20.6850   -6.8720 C   0  0  1  0  0  0  0  0  0  0  0  0
   -2.6770   20.7160   -8.0510 O   0  0  0  0  0  0  0  0  0  0  0  0
   -4.5360   21.8430   -7.0290 C   0  0  2  0  0  0  0  0  0  0  0  0
   -5.9020   21.4950   -6.7410 O   0  0  0  0  0  0  0  0  0  0  0  0
   -2.9400   21.9320   -8.6930 C   0  0  1  0  0  0  0  0  0  0  0  0
   -4.4020   22.2250   -8.5090 C   0  0  2  0  0  0  0  0  0  0  0  0
   -1.9880   22.9130   -8.0560 C   0  0  0  0  0  0  0  0  0  0  0  0
   -4.8550   23.5220   -8.9260 O   0  0  0  0  0  0  0  0  0  0  0  0
  1  2  1  0
  2  3  2  0
  2  4  1  0
  4  5  1  0
  3  6  1  0
  5  7  2  3
  5  8  1  0
  6  8  2  0
  6  9  1  0
  7 10  1  0
  9 11  2  0
  8 12  1  0
 10 13  1  0
 11 14  1  0
 12 14  2  0
 13 15  1  0
 15 16  1  0
 16 17  1  0
 17 18  1  0
 19 18  1  6
 19 20  1  0
 19 21  1  0
 21 22  1  6
 20 23  1  0
 21 24  1  0
 23 24  1  0
 23 25  1  1
 24 26  1  1
M  END
>  <%Rank>  (1017) 
77.557252

>  <N_hits>  (1017) 
2

>  <submitter_name>  (1017) 
nan

>  <original SMILES>  (1017) 
nan

>  <∆G_unbound>  (1017) 
0.300627

>  <∆G_bound>  (1017) 
-3.277967

>  <regarded>  (1017) 
mArh-mac-194_0_A_α,mArh-5cb5_I_0_I_α

>  <ref_pdb>  (1017) 
nan

>  <smiles>  (1017) 
CC1OC(OCCCCCN=c2[nH]c(N)nc3ccccc23)C(O)C1O

>  <submitter_email>  (1017) 
nan

>  <disregarded>  (1017) 


>  <LE>  (1017) 
-0.137638

>  <submitter_institution>  (1017) 
nan

>  <ref_mols>  (1017) 
mArh-mac-194_0_A,mArh-5cb5_I_0_I

>  <N_constrained_atoms>  (1017) 
21.0

>  <ref_url>  (1017) 
nan

>  <method>  (1017) 
nan

>  <comRMSD>  (1017) 
1.151602

>  <N_unconstrained_atoms>  (1017) 
5.0

>  <∆∆G>  (1017) 
-3.578593

>  <runtime>  (1017) 
36.899693

>  <generation_date>  (1017) 
nan

$$$$
5FUD_1_B_α-mArh-5lw0_A_0_A_α
     RDKit          3D

 20 21  0  0  0  0  0  0  0  0999 V2000
   -2.4720   18.6770   -7.2920 O   0  0  0  0  0  0  0  0  0  0  0  0
   -1.5310   19.9250   -7.6330 S   0  0  0  0  0  0  0  0  0  0  0  0
   -0.9390   20.4260   -6.2550 O   0  0  0  0  0  0  0  0  0  0  0  0
   -0.3770   19.4290   -8.6320 O   0  0  0  0  0  0  0  0  0  0  0  0
   -2.4660   21.2940   -8.3800 C   0  0  2  0  0  0  0  0  0  0  0  0
   -1.9150   22.6070   -7.8400 C   0  0  0  0  0  0  0  0  0  0  0  0
   -3.9730   21.4680   -8.1410 C   0  0  2  0  0  0  0  0  0  0  0  0
   -2.9310   23.6950   -7.9220 N   0  0  0  0  0  0  0  0  0  0  0  0
   -4.7440   20.4180   -7.5830 O   0  0  0  0  0  0  0  0  0  0  0  0
   -4.8400   22.1720   -9.1980 C   0  0  1  0  0  0  0  0  0  0  0  0
   -4.4980   22.0290  -10.5810 O   0  0  0  0  0  0  0  0  0  0  0  0
   -3.7820   23.6060   -9.1510 C   0  0  0  0  0  0  0  0  0  0  0  0
   -3.7120   23.7600   -6.6700 C   0  0  0  0  0  0  0  0  0  0  0  0
   -6.0420   20.9840   -7.5600 C   0  0  1  0  0  0  0  0  0  0  0  0
   -6.2500   21.7220   -8.8720 C   0  0  1  0  0  0  0  0  0  0  0  0
   -6.9960   19.9500   -7.5030 O   0  0  0  0  0  0  0  0  0  0  0  0
   -7.1400   22.8350   -8.8240 O   0  0  0  0  0  0  0  0  0  0  0  0
   -5.2920   23.9480   -9.0820 C   0  0  0  0  0  0  0  0  0  0  0  0
   -5.0050   24.5160   -6.8480 C   0  0  0  0  0  0  0  0  0  0  0  0
   -5.8730   23.8880   -7.7780 O   0  0  0  0  0  0  0  0  0  0  0  0
  2  1  1  0
  2  3  1  0
  2  4  1  0
  2  5  1  0
  5  6  1  1
  5  7  1  0
  6  8  1  0
  7  9  1  6
  7 10  1  0
 10 11  1  6
  8 12  1  0
  8 13  1  0
  9 14  1  0
 10 15  1  0
 14 15  1  0
 14 16  1  6
 15 17  1  1
 12 18  1  0
 13 19  1  0
 18 20  1  0
 19 20  1  0
M  END
>  <%Rank>  (1018) 
77.633588

>  <N_hits>  (1018) 
2

>  <submitter_name>  (1018) 
nan

>  <original SMILES>  (1018) 
nan

>  <∆G_unbound>  (1018) 
2.5949

>  <∆G_bound>  (1018) 
2.38002

>  <regarded>  (1018) 
5FUD_1_B_α,mArh-5lw0_A_0_A_α

>  <ref_pdb>  (1018) 
nan

>  <smiles>  (1018) 
OC1OC(C(CN2CCOCC2)S(O)(O)O)C(O)C1O

>  <submitter_email>  (1018) 
nan

>  <disregarded>  (1018) 


>  <LE>  (1018) 
-0.010744

>  <submitter_institution>  (1018) 
nan

>  <ref_mols>  (1018) 
5FUD_1_B,mArh-5lw0_A_0_A

>  <N_constrained_atoms>  (1018) 
20.0

>  <ref_url>  (1018) 
nan

>  <method>  (1018) 
nan

>  <comRMSD>  (1018) 
1.190912

>  <N_unconstrained_atoms>  (1018) 
0.0

>  <∆∆G>  (1018) 
-0.214879

>  <runtime>  (1018) 
54.817194

>  <generation_date>  (1018) 
nan

$$$$
mArh-5cms_D_3_D_α-mArh-6woj_B_0_B_β
     RDKit          3D

 11 10  0  0  0  0  0  0  0  0999 V2000
   -1.3310   16.7180   -5.4270 O   0  0  0  0  0  0  0  0  0  0  0  0
   -2.0180   18.0250   -5.8250 P   0  0  0  0  0  0  0  0  0  0  0  0
   -2.7900   17.1470   -6.9290 O   0  0  0  0  0  0  0  0  0  0  0  0
   -2.7830   19.2450   -6.2900 O   0  0  0  0  0  0  0  0  0  0  0  0
   -0.5360   18.7210   -6.1200 N   0  0  0  0  0  0  0  0  0  0  0  0
   -0.1260   19.4820   -7.4990 P   0  0  0  0  0  0  0  0  0  0  0  0
    0.5670   17.8620   -5.1440 P   0  0  0  0  0  0  0  0  0  0  0  0
   -1.5890   20.3080   -7.5180 O   0  0  0  0  0  0  0  0  0  0  0  0
    0.0090   18.4500   -8.7100 O   0  0  0  0  0  0  0  0  0  0  0  0
    0.3840   20.9490   -7.9760 N   0  0  0  0  0  0  0  0  0  0  0  0
    1.4270   21.3220   -7.6250 O   0  0  0  0  0  0  0  0  0  0  0  0
  1  2  1  0
  2  3  1  0
  2  4  1  0
  2  5  1  0
  5  6  1  0
  5  7  1  0
  6  8  1  0
  6  9  1  0
  6 10  1  0
 10 11  2  0
M  CHG  2   3  -1   9  -1
M  END
>  <%Rank>  (1019) 
77.709924

>  <N_hits>  (1019) 
2

>  <submitter_name>  (1019) 
nan

>  <original SMILES>  (1019) 
nan

>  <∆G_unbound>  (1019) 
0.755993

>  <∆G_bound>  (1019) 
-2.749553

>  <regarded>  (1019) 
mArh-5cms_D_3_D_α,mArh-6woj_B_0_B_β

>  <ref_pdb>  (1019) 
nan

>  <smiles>  (1019) 
O=N[PH]([O-])(O)N(P)[PH]([O-])(O)O

>  <submitter_email>  (1019) 
nan

>  <disregarded>  (1019) 


>  <LE>  (1019) 
-0.318686

>  <submitter_institution>  (1019) 
nan

>  <ref_mols>  (1019) 
mArh-5cms_D_3_D,mArh-6woj_B_0_B

>  <N_constrained_atoms>  (1019) 
11.0

>  <ref_url>  (1019) 
nan

>  <method>  (1019) 
nan

>  <comRMSD>  (1019) 
1.129927

>  <N_unconstrained_atoms>  (1019) 
0.0

>  <∆∆G>  (1019) 
-3.505546

>  <runtime>  (1019) 
32.250519

>  <generation_date>  (1019) 
nan

$$$$
mArh-5cb5_B_0_B_α-MAC-194_0_A_α
     RDKit          3D

 27 29  0  0  0  0  0  0  0  0999 V2000
   -2.2550   21.6210   -8.4290 C   0  0  0  0  0  0  0  0  0  0  0  0
   -3.6870   21.6920   -7.9460 C   0  0  2  0  0  0  0  0  0  0  0  0
   -4.5760   20.8690   -8.6850 O   0  0  0  0  0  0  0  0  0  0  0  0
   -4.3890   23.0230   -8.0230 C   0  0  1  0  0  0  0  0  0  0  0  0
   -4.3250   23.7220   -9.2680 O   0  0  0  0  0  0  0  0  0  0  0  0
   -5.8310   20.9790   -8.0300 C   0  0  1  0  0  0  0  0  0  0  0  0
   -5.8200   22.5320   -7.7370 C   0  0  2  0  0  0  0  0  0  0  0  0
   -6.9760   20.3690   -8.8520 O   0  0  0  0  0  0  0  0  0  0  0  0
   -6.7090   23.3450   -8.4770 O   0  0  0  0  0  0  0  0  0  0  0  0
   -7.8130   19.1480   -8.4280 C   0  0  0  0  0  0  0  0  0  0  0  0
   -8.1130   17.7090   -9.0310 C   0  0  0  0  0  0  0  0  0  0  0  0
   -8.3480   16.4020   -8.0500 C   0  0  0  0  0  0  0  0  0  0  0  0
   -7.3610   15.7290   -6.9580 C   0  0  0  0  0  0  0  0  0  0  0  0
   -7.8310   14.7450   -5.7300 C   0  0  0  0  0  0  0  0  0  0  0  0
   -6.9050   14.4870   -4.3990 C   0  0  0  0  0  0  0  0  0  0  0  0
   -7.5350   14.6140   -2.9780 N   0  0  0  0  0  0  0  0  0  0  0  0
   -6.9450   14.6840   -1.7190 C   0  0  0  0  0  0  0  0  0  0  0  0
   -7.6110   14.7740   -0.4690 N   0  0  0  0  0  0  0  0  0  0  0  0
   -5.4400   14.6690   -1.4890 C   0  0  0  0  0  0  0  0  0  0  0  0
   -7.0300   14.6280    0.7880 C   0  0  0  0  0  0  0  0  0  0  0  0
   -4.9480   14.5980   -0.1470 C   0  0  0  0  0  0  0  0  0  0  0  0
   -4.5320   14.7230   -2.5450 C   0  0  0  0  0  0  0  0  0  0  0  0
   -7.8790   14.5830    1.8570 N   0  0  0  0  0  0  0  0  0  0  0  0
   -5.7660   14.5400    0.9930 N   0  0  0  0  0  0  0  0  0  0  0  0
   -3.5660   14.5850    0.0840 C   0  0  0  0  0  0  0  0  0  0  0  0
   -3.1580   14.7090   -2.2890 C   0  0  0  0  0  0  0  0  0  0  0  0
   -2.6760   14.6400   -0.9830 C   0  0  0  0  0  0  0  0  0  0  0  0
  2  1  1  6
  2  3  1  0
  2  4  1  0
  4  5  1  6
  3  6  1  0
  4  7  1  0
  6  7  1  0
  6  8  1  6
  7  9  1  6
  8 10  1  0
 10 11  1  0
 11 12  1  0
 12 13  1  0
 13 14  1  0
 14 15  1  0
 15 16  1  0
 16 17  2  3
 17 18  1  0
 17 19  1  0
 18 20  1  0
 19 21  2  0
 19 22  1  0
 20 23  1  0
 20 24  2  0
 21 24  1  0
 21 25  1  0
 22 26  2  0
 25 27  2  0
 26 27  1  0
M  END
>  <%Rank>  (1020) 
77.78626

>  <N_hits>  (1020) 
2

>  <submitter_name>  (1020) 
nan

>  <original SMILES>  (1020) 
nan

>  <∆G_unbound>  (1020) 
0.121538

>  <∆G_bound>  (1020) 
-3.905613

>  <regarded>  (1020) 
mArh-5cb5_B_0_B_α,MAC-194_0_A_α

>  <ref_pdb>  (1020) 
nan

>  <smiles>  (1020) 
CC1OC(OCCCCCCN=c2[nH]c(N)nc3ccccc23)C(O)C1O

>  <submitter_email>  (1020) 
nan

>  <disregarded>  (1020) 


>  <LE>  (1020) 
-0.149154

>  <submitter_institution>  (1020) 
nan

>  <ref_mols>  (1020) 
mArh-5cb5_B_0_B,MAC-194_0_A

>  <N_constrained_atoms>  (1020) 
21.0

>  <ref_url>  (1020) 
nan

>  <method>  (1020) 
nan

>  <comRMSD>  (1020) 
1.143093

>  <N_unconstrained_atoms>  (1020) 
6.0

>  <∆∆G>  (1020) 
-4.027152

>  <runtime>  (1020) 
36.699791

>  <generation_date>  (1020) 
nan

$$$$
5CMS_0_N_α-mArh-4iqy_B_0_B_β
     RDKit          3D

 17 17  0  0  0  0  0  0  0  0999 V2000
   -1.7230   21.6390   -8.4260 C   0  0  0  0  0  0  0  0  0  0  0  0
   -0.8900   20.1640   -7.7660 P   0  0  2  0  0  0  0  0  0  0  0  0
   -1.7450   19.6090   -6.5420 O   0  0  0  0  0  0  0  0  0  0  0  0
   -3.2330   21.8150   -8.7640 C   0  0  1  0  0  0  0  0  0  0  0  0
    0.5550   20.3880   -7.4630 O   0  0  0  0  0  0  0  0  0  0  0  0
   -0.9560   18.9220   -8.7760 O   0  0  0  0  0  0  0  0  0  0  0  0
   -3.9240   22.5510   -7.7660 O   0  0  0  0  0  0  0  0  0  0  0  0
   -3.3970   22.6900   -9.9740 C   0  0  1  0  0  0  0  0  0  0  0  0
   -3.5030   21.9830  -11.2020 O   0  0  0  0  0  0  0  0  0  0  0  0
   -1.7460   18.1140   -6.0000 P   0  0  0  0  0  0  0  0  0  0  0  0
   -4.8140   23.5050   -8.3920 C   0  0  1  0  0  0  0  0  0  0  0  0
   -4.5550   23.5790   -9.8900 C   0  0  2  0  0  0  0  0  0  0  0  0
   -6.1610   23.2370   -8.1350 O   0  0  0  0  0  0  0  0  0  0  0  0
   -5.6000   23.0730  -10.7320 O   0  0  0  0  0  0  0  0  0  0  0  0
   -0.3380   17.4750   -6.3520 O   0  0  0  0  0  0  0  0  0  0  0  0
   -2.1310   17.8730   -4.6060 O   0  0  0  0  0  0  0  0  0  0  0  0
   -2.7110   17.3380   -6.9800 O   0  0  0  0  0  0  0  0  0  0  0  0
  1  2  1  0
  2  3  1  0
  4  1  1  1
  2  5  2  0
  2  6  1  6
  4  7  1  0
  4  8  1  0
  8  9  1  6
  3 10  1  0
  7 11  1  0
  8 12  1  0
 11 12  1  0
 11 13  1  6
 12 14  1  6
 10 15  1  0
 10 16  2  0
 10 17  1  0
M  END
>  <%Rank>  (1021) 
77.862595

>  <N_hits>  (1021) 
2

>  <submitter_name>  (1021) 
nan

>  <original SMILES>  (1021) 
nan

>  <∆G_unbound>  (1021) 
1.703844

>  <∆G_bound>  (1021) 
-5.891942

>  <regarded>  (1021) 
5CMS_0_N_α,mArh-4iqy_B_0_B_β

>  <ref_pdb>  (1021) 
nan

>  <smiles>  (1021) 
O=P(O)(O)OP(=O)(O)CC1OC(O)C(O)C1O

>  <submitter_email>  (1021) 
nan

>  <disregarded>  (1021) 


>  <LE>  (1021) 
-0.446811

>  <submitter_institution>  (1021) 
nan

>  <ref_mols>  (1021) 
5CMS_0_N,mArh-4iqy_B_0_B

>  <N_constrained_atoms>  (1021) 
17.0

>  <ref_url>  (1021) 
nan

>  <method>  (1021) 
nan

>  <comRMSD>  (1021) 
1.359844

>  <N_unconstrained_atoms>  (1021) 
0.0

>  <∆∆G>  (1021) 
-7.595787

>  <runtime>  (1021) 
29.928332

>  <generation_date>  (1021) 
nan

$$$$
mArh-5cb5_R_0_R_α-3EW5_0_C_α
     RDKit          3D

 15 16  0  0  0  0  0  0  0  0999 V2000
   -2.0070   20.6230   -7.8750 C   0  0  2  0  0  0  0  0  0  0  0  0
   -0.6150   19.6170   -7.5440 P   0  0  0  0  0  0  0  0  0  0  0  0
    0.4870   20.6860   -7.5900 O   0  0  0  0  0  0  0  0  0  0  0  0
   -1.7880   22.0810   -7.7690 C   0  0  0  0  0  0  0  0  0  0  0  0
   -3.2440   20.2950   -7.1390 C   0  0  0  0  0  0  0  0  0  0  0  0
    0.2110   18.8840   -8.8290 O   0  0  0  0  0  0  0  0  0  0  0  0
   -0.3470   19.0580   -6.0770 O   0  0  0  0  0  0  0  0  0  0  0  0
   -3.1180   22.6850   -8.0950 C   0  0  1  0  0  0  0  0  0  0  0  0
   -4.3110   21.0500   -7.2200 O   0  0  0  0  0  0  0  0  0  0  0  0
   -3.8470   22.1070   -9.2510 C   0  0  0  0  0  0  0  0  0  0  0  0
   -4.0830   22.3430   -7.0300 C   0  0  2  0  0  0  0  0  0  0  0  0
   -4.7120   23.0160   -9.7320 O   0  0  0  0  0  0  0  0  0  0  0  0
   -5.3000   23.1370   -7.3760 C   0  0  1  0  0  0  0  0  0  0  0  0
   -5.4920   24.1300   -6.4180 O   0  0  0  0  0  0  0  0  0  0  0  0
   -5.0640   23.8230   -8.7020 C   0  0  0  0  0  0  0  0  0  0  0  0
  1  2  1  1
  2  3  1  0
  1  4  1  0
  1  5  1  0
  2  6  1  0
  2  7  1  0
  8  4  1  1
  5  9  1  0
  8 10  1  0
  8 11  1  0
 11  9  1  6
 10 12  1  0
 11 13  1  0
 13 14  1  1
 12 15  1  0
 13 15  1  0
M  CHG  1   6  -1
M  END
>  <%Rank>  (1022) 
77.938931

>  <N_hits>  (1022) 
2

>  <submitter_name>  (1022) 
nan

>  <original SMILES>  (1022) 
nan

>  <∆G_unbound>  (1022) 
0.481786

>  <∆G_bound>  (1022) 
-6.891359

>  <regarded>  (1022) 
mArh-5cb5_R_0_R_α,3EW5_0_C_α

>  <ref_pdb>  (1022) 
nan

>  <smiles>  (1022) 
[O-][PH](O)(O)C1COC2C(O)COC[C@H]2C1

>  <submitter_email>  (1022) 
nan

>  <disregarded>  (1022) 


>  <LE>  (1022) 
-0.491543

>  <submitter_institution>  (1022) 
nan

>  <ref_mols>  (1022) 
mArh-5cb5_R_0_R,3EW5_0_C

>  <N_constrained_atoms>  (1022) 
15.0

>  <ref_url>  (1022) 
nan

>  <method>  (1022) 
nan

>  <comRMSD>  (1022) 
1.336197

>  <N_unconstrained_atoms>  (1022) 
0.0

>  <∆∆G>  (1022) 
-7.373145

>  <runtime>  (1022) 
34.684274

>  <generation_date>  (1022) 
nan

$$$$
5CMS_0_Q_β-1HJZ_0_A_α
     RDKit          3D

 18 18  0  0  0  0  0  0  0  0999 V2000
   -1.4540   21.1150   -6.8260 O   0  0  0  0  0  0  0  0  0  0  0  0
   -0.4460   19.9440   -7.6420 P   0  0  0  0  0  0  0  0  0  0  0  0
   -1.6750   18.6480   -7.4120 O   0  0  0  0  0  0  0  0  0  0  0  0
   -1.8630   22.1670   -7.4290 C   0  0  0  0  0  0  0  0  0  0  0  0
   -0.2230   19.0490   -6.0530 O   0  0  0  0  0  0  0  0  0  0  0  0
    0.2300   18.5150   -8.4620 O   0  0  0  0  0  0  0  0  0  0  0  0
   -1.5090   20.6480   -8.7840 O   0  0  0  0  0  0  0  0  0  0  0  0
    0.6350   21.1570   -8.2880 O   0  0  0  0  0  0  0  0  0  0  0  0
   -3.2340   22.3830   -7.6010 N   0  0  0  0  0  0  0  0  0  0  0  0
   -2.1490   17.8480   -6.2770 P   0  0  0  0  0  0  0  0  0  0  0  0
   -3.6580   22.7380   -8.8830 C   0  0  0  0  0  0  0  0  0  0  0  0
   -3.7780   23.2610   -6.5980 C   0  0  0  0  0  0  0  0  0  0  0  0
   -0.7080   17.0990   -5.9500 O   0  0  0  0  0  0  0  0  0  0  0  0
   -2.5320   17.2270   -4.8820 O   0  0  0  0  0  0  0  0  0  0  0  0
   -2.3770   19.2650   -5.3900 O   0  0  0  0  0  0  0  0  0  0  0  0
   -5.1560   22.9990   -9.0220 C   0  0  0  0  0  0  0  0  0  0  0  0
   -5.1410   23.7770   -6.9020 C   0  0  0  0  0  0  0  0  0  0  0  0
   -5.3930   24.0770   -8.2140 O   0  0  0  0  0  0  0  0  0  0  0  0
  1  2  1  0
  2  3  1  0
  1  4  1  0
  2  5  1  0
  2  6  1  0
  2  7  1  0
  2  8  1  0
  4  9  1  0
  3 10  1  0
  9 11  1  0
  9 12  1  0
 10 13  1  0
 10 14  1  0
 10 15  1  0
 11 16  1  0
 12 17  1  0
 16 18  1  0
 17 18  1  0
M  CHG  2   5  -1  14  -1
M  END
>  <%Rank>  (1023) 
78.015267

>  <N_hits>  (1023) 
2

>  <submitter_name>  (1023) 
nan

>  <original SMILES>  (1023) 
nan

>  <∆G_unbound>  (1023) 
2.83014

>  <∆G_bound>  (1023) 
-6.863945

>  <regarded>  (1023) 
5CMS_0_Q_β,1HJZ_0_A_α

>  <ref_pdb>  (1023) 
nan

>  <smiles>  (1023) 
[O-][PH](O)(O)O[PH]([O-])(O)(O)(O)OCN1CCOCC1

>  <submitter_email>  (1023) 
nan

>  <disregarded>  (1023) 


>  <LE>  (1023) 
-0.53856

>  <submitter_institution>  (1023) 
nan

>  <ref_mols>  (1023) 
5CMS_0_Q,1HJZ_0_A

>  <N_constrained_atoms>  (1023) 
18.0

>  <ref_url>  (1023) 
nan

>  <method>  (1023) 
nan

>  <comRMSD>  (1023) 
1.431457

>  <N_unconstrained_atoms>  (1023) 
0.0

>  <∆∆G>  (1023) 
-9.694085

>  <runtime>  (1023) 
33.547105

>  <generation_date>  (1023) 
nan

$$$$
5CB5_0_A_α-5CMS_0_D_β
     RDKit          3D

 22 23  0  0  0  0  0  0  0  0999 V2000
   -2.3110   21.4490   -8.8730 C   0  0  0  0  0  0  0  0  0  0  0  0
   -2.8850   22.7780   -8.4610 C   0  0  2  0  0  0  0  0  0  0  0  0
   -3.0970   22.6850   -7.0650 O   0  0  0  0  0  0  0  0  0  0  0  0
   -4.2330   23.1770   -9.0380 C   0  0  1  0  0  0  0  0  0  0  0  0
   -4.4520   22.6100  -10.3280 O   0  0  0  0  0  0  0  0  0  0  0  0
   -4.4300   22.3110   -6.7880 C   0  0  1  0  0  0  0  0  0  0  0  0
   -5.2490   22.6450   -8.0280 C   0  0  1  0  0  0  0  0  0  0  0  0
   -4.4240   20.9430   -6.4310 O   0  0  0  0  0  0  0  0  0  0  0  0
   -6.2090   23.6630   -7.7210 O   0  0  0  0  0  0  0  0  0  0  0  0
   -3.1050   20.5880   -5.9380 C   0  0  0  0  0  0  0  0  0  0  0  0
   -2.4850   19.2640   -6.4330 C   0  0  0  0  0  0  0  0  0  0  0  0
   -1.1170   19.4510   -7.1220 C   0  0  0  0  0  0  0  0  0  0  0  0
    0.0110   19.0130   -6.1870 C   0  0  0  0  0  0  0  0  0  0  0  0
    0.2150   17.5350   -6.0850 C   0  0  0  0  0  0  0  0  0  0  0  0
   -0.0660   16.9950   -4.6940 C   0  0  0  0  0  0  0  0  0  0  0  0
    0.7100   15.7220   -4.3240 C   0  0  1  0  0  0  0  0  0  0  0  0
    0.3910   15.4470   -2.9380 O   0  0  0  0  0  0  0  0  0  0  0  0
    0.3260   14.4360   -5.0570 C   0  0  1  0  0  0  0  0  0  0  0  0
    1.3020   13.4110   -5.0930 O   0  0  0  0  0  0  0  0  0  0  0  0
   -0.6380   14.4460   -2.8920 C   0  0  0  0  0  0  0  0  0  0  0  0
   -0.9140   13.9800   -4.3100 C   0  0  2  0  0  0  0  0  0  0  0  0
   -1.0690   12.5750   -4.4210 O   0  0  0  0  0  0  0  0  0  0  0  0
  2  1  1  6
  2  3  1  0
  2  4  1  0
  4  5  1  6
  3  6  1  0
  4  7  1  0
  6  7  1  0
  6  8  1  6
  7  9  1  1
  8 10  1  0
 10 11  1  0
 11 12  1  0
 12 13  1  0
 13 14  1  0
 14 15  1  0
 16 15  1  6
 16 17  1  0
 16 18  1  0
 18 19  1  1
 17 20  1  0
 18 21  1  0
 20 21  1  0
 21 22  1  1
M  END
>  <%Rank>  (1024) 
78.091603

>  <N_hits>  (1024) 
2

>  <submitter_name>  (1024) 
nan

>  <original SMILES>  (1024) 
nan

>  <∆G_unbound>  (1024) 
0.187336

>  <∆G_bound>  (1024) 
-9.173176

>  <regarded>  (1024) 
5CB5_0_A_α,5CMS_0_D_β

>  <ref_pdb>  (1024) 
nan

>  <smiles>  (1024) 
CC1OC(OCCCCCCC2OCC(O)C2O)C(O)C1O

>  <submitter_email>  (1024) 
nan

>  <disregarded>  (1024) 


>  <LE>  (1024) 
-0.425478

>  <submitter_institution>  (1024) 
nan

>  <ref_mols>  (1024) 
5CB5_0_A,5CMS_0_D

>  <N_constrained_atoms>  (1024) 
17.0

>  <ref_url>  (1024) 
nan

>  <method>  (1024) 
nan

>  <comRMSD>  (1024) 
1.207361

>  <N_unconstrained_atoms>  (1024) 
5.0

>  <∆∆G>  (1024) 
-9.360511

>  <runtime>  (1024) 
45.405897

>  <generation_date>  (1024) 
nan

$$$$
mArh-EU0056_0_A_α-mArh-5lw0_A_0_A_α
     RDKit          3D

 25 26  0  0  0  0  0  0  0  0999 V2000
   -8.1810   13.5480    3.9140 N   0  0  0  0  0  0  0  0  0  0  0  0
   -7.6470   14.8080    3.3930 C   0  0  0  0  0  0  0  0  0  0  0  0
   -7.1930   14.7200    1.9530 C   0  0  0  0  0  0  0  0  0  0  0  0
   -8.1140   14.4350    0.9530 C   0  0  0  0  0  0  0  0  0  0  0  0
   -5.8420   14.9260    1.5400 C   0  0  0  0  0  0  0  0  0  0  0  0
   -7.8040   14.3480   -0.3540 N   0  0  0  0  0  0  0  0  0  0  0  0
   -5.4790   14.8430    0.1770 C   0  0  0  0  0  0  0  0  0  0  0  0
   -4.2460   15.0130   -0.4390 O   0  0  0  0  0  0  0  0  0  0  0  0
   -6.5100   14.5530   -0.6990 C   0  0  0  0  0  0  0  0  0  0  0  0
   -3.8620   14.1490   -1.5650 C   0  0  0  0  0  0  0  0  0  0  0  0
   -4.0680   14.6820   -3.0300 C   0  0  0  0  0  0  0  0  0  0  0  0
   -2.9870   15.6740   -3.5200 C   0  0  0  0  0  0  0  0  0  0  0  0
   -2.8520   16.1570   -5.0100 C   0  0  0  0  0  0  0  0  0  0  0  0
   -1.9800   17.4700   -5.2140 C   0  0  0  0  0  0  0  0  0  0  0  0
   -2.4440   18.5470   -6.2490 C   0  0  0  0  0  0  0  0  0  0  0  0
   -2.8010   19.9820   -5.7160 C   0  0  0  0  0  0  0  0  0  0  0  0
   -4.1740   20.4610   -5.9970 O   0  0  0  0  0  0  0  0  0  0  0  0
   -4.1060   21.3090   -7.1150 C   0  0  1  0  0  0  0  0  0  0  0  0
   -4.3240   20.6570   -8.2990 O   0  0  0  0  0  0  0  0  0  0  0  0
   -5.1180   22.4150   -7.3500 C   0  0  2  0  0  0  0  0  0  0  0  0
   -6.4280   21.8850   -7.5510 O   0  0  0  0  0  0  0  0  0  0  0  0
   -3.6820   21.6450   -9.0630 C   0  0  1  0  0  0  0  0  0  0  0  0
   -4.5670   22.8500   -8.7260 C   0  0  1  0  0  0  0  0  0  0  0  0
   -2.2410   21.5950   -8.5730 C   0  0  0  0  0  0  0  0  0  0  0  0
   -5.6430   22.9340   -9.6690 O   0  0  0  0  0  0  0  0  0  0  0  0
  1  2  1  0
  2  3  1  0
  3  4  2  0
  3  5  1  0
  4  6  1  0
  5  7  2  0
  7  8  1  0
  6  9  2  0
  7  9  1  0
  8 10  1  0
 10 11  1  0
 11 12  1  0
 12 13  1  0
 13 14  1  0
 14 15  1  0
 15 16  1  0
 16 17  1  0
 18 17  1  1
 18 19  1  0
 18 20  1  0
 20 21  1  6
 19 22  1  0
 20 23  1  0
 22 23  1  0
 22 24  1  1
 23 25  1  6
M  END
>  <%Rank>  (1025) 
78.167939

>  <N_hits>  (1025) 
2

>  <submitter_name>  (1025) 
nan

>  <original SMILES>  (1025) 
nan

>  <∆G_unbound>  (1025) 
0.196056

>  <∆G_bound>  (1025) 
-4.807909

>  <regarded>  (1025) 
mArh-EU0056_0_A_α,mArh-5lw0_A_0_A_α

>  <ref_pdb>  (1025) 
nan

>  <smiles>  (1025) 
CC1OC(OCCCCCCCOc2cncc(CN)c2)C(O)C1O

>  <submitter_email>  (1025) 
nan

>  <disregarded>  (1025) 


>  <LE>  (1025) 
-0.200159

>  <submitter_institution>  (1025) 
nan

>  <ref_mols>  (1025) 
mArh-EU0056_0_A,mArh-5lw0_A_0_A

>  <N_constrained_atoms>  (1025) 
18.0

>  <ref_url>  (1025) 
nan

>  <method>  (1025) 
nan

>  <comRMSD>  (1025) 
1.068751

>  <N_unconstrained_atoms>  (1025) 
7.0

>  <∆∆G>  (1025) 
-5.003965

>  <runtime>  (1025) 
36.912617

>  <generation_date>  (1025) 
nan

$$$$
6WOJ_0_A_δ-mArh-5cb5_Q_0_Q_α
     RDKit          3D

 24 26  0  0  0  0  0  0  0  0999 V2000
   -4.1370   15.1500    1.1990 N   0  0  0  0  0  0  0  0  0  0  0  0
   -2.9560   14.5680    0.5870 C   0  0  1  0  0  0  0  0  0  0  0  0
   -2.5430   15.1910   -0.7620 C   0  0  1  0  0  0  0  0  0  0  0  0
   -1.9130   14.7660    1.5750 N   0  0  0  0  0  0  0  0  0  0  0  0
   -1.2840   14.4480   -1.1390 C   0  0  1  0  0  0  0  0  0  0  0  0
   -3.3440   15.0410   -1.9990 N   0  0  0  0  0  0  0  0  0  0  0  0
   -0.6010   14.2610    1.1650 C   0  0  0  0  0  0  0  0  0  0  0  0
   -1.0180   15.0100   -2.4420 N   0  0  0  0  0  0  0  0  0  0  0  0
   -2.3290   14.9220   -3.0860 C   0  0  2  0  0  0  0  0  0  0  0  0
   -0.2250   14.6700   -0.1920 N   0  0  0  0  0  0  0  0  0  0  0  0
   -2.6230   15.9220   -4.2450 C   0  0  0  0  0  0  0  0  0  0  0  0
   -1.6080   17.0480   -4.6160 C   0  0  0  0  0  0  0  0  0  0  0  0
   -1.9440   17.8070   -5.9270 C   0  0  0  0  0  0  0  0  0  0  0  0
   -2.1580   19.3400   -5.7680 C   0  0  0  0  0  0  0  0  0  0  0  0
   -3.1960   19.8990   -6.7560 C   0  0  0  0  0  0  0  0  0  0  0  0
   -4.1100   20.8680   -6.1970 O   0  0  0  0  0  0  0  0  0  0  0  0
   -4.8100   21.5880   -7.2300 C   0  0  2  0  0  0  0  0  0  0  0  0
   -4.3660   21.1330   -8.5030 O   0  0  0  0  0  0  0  0  0  0  0  0
   -4.4790   23.0960   -7.1380 C   0  0  2  0  0  0  0  0  0  0  0  0
   -5.6640   23.9120   -6.9930 O   0  0  0  0  0  0  0  0  0  0  0  0
   -3.3670   22.0460   -8.9490 C   0  0  1  0  0  0  0  0  0  0  0  0
   -3.8530   23.4080   -8.5060 C   0  0  1  0  0  0  0  0  0  0  0  0
   -2.0000   21.7070   -8.3710 C   0  0  0  0  0  0  0  0  0  0  0  0
   -4.7810   23.9760   -9.4320 O   0  0  0  0  0  0  0  0  0  0  0  0
  2  1  1  1
  2  3  1  0
  2  4  1  0
  3  5  1  0
  3  6  1  6
  4  7  1  0
  5  8  1  6
  6  9  1  0
  8  9  1  0
  5 10  1  0
  7 10  1  0
  9 11  1  6
 11 12  1  0
 12 13  1  0
 13 14  1  0
 14 15  1  0
 15 16  1  0
 17 16  1  1
 17 18  1  0
 17 19  1  0
 19 20  1  6
 18 21  1  0
 19 22  1  0
 21 22  1  0
 21 23  1  1
 22 24  1  6
M  END
>  <%Rank>  (1026) 
78.244275

>  <N_hits>  (1026) 
2

>  <submitter_name>  (1026) 
nan

>  <original SMILES>  (1026) 
nan

>  <∆G_unbound>  (1026) 
0.335171

>  <∆G_bound>  (1026) 
-9.354214

>  <regarded>  (1026) 
6WOJ_0_A_δ,mArh-5cb5_Q_0_Q_α

>  <ref_pdb>  (1026) 
nan

>  <smiles>  (1026) 
CC1OC(OCCCCCC2NC3NCNC(N)C3N2)C(O)C1O

>  <submitter_email>  (1026) 
nan

>  <disregarded>  (1026) 


>  <LE>  (1026) 
-0.403724

>  <submitter_institution>  (1026) 
nan

>  <ref_mols>  (1026) 
6WOJ_0_A,mArh-5cb5_Q_0_Q

>  <N_constrained_atoms>  (1026) 
19.0

>  <ref_url>  (1026) 
nan

>  <method>  (1026) 
nan

>  <comRMSD>  (1026) 
1.256624

>  <N_unconstrained_atoms>  (1026) 
5.0

>  <∆∆G>  (1026) 
-9.689385

>  <runtime>  (1026) 
44.312921

>  <generation_date>  (1026) 
nan

$$$$
mArh-5cms_N_13_N_α-5CMS_0_J_β
     RDKit          3D

 17 17  0  0  0  0  0  0  0  0999 V2000
   -1.9300   21.9700   -8.2990 C   0  0  0  0  0  0  0  0  0  0  0  0
   -0.8240   20.5830   -8.1320 P   0  0  0  0  0  0  0  0  0  0  0  0
   -1.2560   20.1010   -6.7110 O   0  0  0  0  0  0  0  0  0  0  0  0
   -3.1410   21.8280   -9.2530 C   0  0  1  0  0  0  0  0  0  0  0  0
    0.7090   20.7070   -7.6370 O   0  0  0  0  0  0  0  0  0  0  0  0
   -1.2260   19.0430   -8.6700 O   0  0  0  0  0  0  0  0  0  0  0  0
   -4.3410   21.6160   -8.5950 O   0  0  0  0  0  0  0  0  0  0  0  0
   -3.5170   22.9650  -10.1910 C   0  0  1  0  0  0  0  0  0  0  0  0
   -3.6920   22.3690  -11.4380 O   0  0  0  0  0  0  0  0  0  0  0  0
   -1.6350   18.5400   -6.2260 P   0  0  0  0  0  0  0  0  0  0  0  0
   -5.1600   22.7290   -8.7410 C   0  0  2  0  0  0  0  0  0  0  0  0
   -4.8990   23.3900  -10.0130 C   0  0  2  0  0  0  0  0  0  0  0  0
   -4.9440   23.7440   -7.8290 O   0  0  0  0  0  0  0  0  0  0  0  0
   -5.5480   22.8640  -11.1540 O   0  0  0  0  0  0  0  0  0  0  0  0
   -0.6480   17.7020   -5.1440 O   0  0  0  0  0  0  0  0  0  0  0  0
   -0.7920   17.9780   -7.3390 O   0  0  0  0  0  0  0  0  0  0  0  0
   -2.9540   17.7940   -6.6980 O   0  0  0  0  0  0  0  0  0  0  0  0
  1  2  1  0
  2  3  1  0
  4  1  1  1
  2  5  1  0
  2  6  1  0
  4  7  1  0
  4  8  1  0
  8  9  1  6
  3 10  1  0
  7 11  1  0
  8 12  1  0
 11 12  1  0
 11 13  1  1
 12 14  1  6
 10 15  1  0
 10 16  1  0
 10 17  1  0
M  CHG  2   5  -1  16  -1
M  END
>  <%Rank>  (1027) 
78.320611

>  <N_hits>  (1027) 
2

>  <submitter_name>  (1027) 
nan

>  <original SMILES>  (1027) 
nan

>  <∆G_unbound>  (1027) 
1.818629

>  <∆G_bound>  (1027) 
-3.716709

>  <regarded>  (1027) 
mArh-5cms_N_13_N_α,5CMS_0_J_β

>  <ref_pdb>  (1027) 
nan

>  <smiles>  (1027) 
[O-][PH](O)(O)O[PH]([O-])(O)CC1OC(O)C(O)C1O

>  <submitter_email>  (1027) 
nan

>  <disregarded>  (1027) 


>  <LE>  (1027) 
-0.325608

>  <submitter_institution>  (1027) 
nan

>  <ref_mols>  (1027) 
mArh-5cms_N_13_N,5CMS_0_J

>  <N_constrained_atoms>  (1027) 
17.0

>  <ref_url>  (1027) 
nan

>  <method>  (1027) 
nan

>  <comRMSD>  (1027) 
1.309473

>  <N_unconstrained_atoms>  (1027) 
0.0

>  <∆∆G>  (1027) 
-5.535338

>  <runtime>  (1027) 
32.901524

>  <generation_date>  (1027) 
nan

$$$$
mArh-5cb5_K_0_K_γ-mArh-x0950_0_A_α
     RDKit          3D

 12 12  0  0  0  0  0  0  0  0999 V2000
    0.0130   12.4890   -3.1620 C   0  0  0  0  0  0  0  0  0  0  0  0
    0.6640   12.9150   -2.0520 O   0  0  0  0  0  0  0  0  0  0  0  0
   -0.0810   11.2900   -3.3640 O   0  0  0  0  0  0  0  0  0  0  0  0
   -0.4550   13.6470   -4.0050 C   0  0  1  0  0  0  0  0  0  0  0  0
   -1.3130   14.6640   -3.2830 C   0  0  0  0  0  0  0  0  0  0  0  0
    0.8010   14.4530   -4.2770 C   0  0  1  0  0  0  0  0  0  0  0  0
    1.5700   13.8540   -5.3840 N   0  0  0  0  0  0  0  0  0  0  0  0
   -1.1150   15.8880   -4.0050 O   0  0  0  0  0  0  0  0  0  0  0  0
    0.2880   15.9270   -4.3260 C   0  0  2  0  0  0  0  0  0  0  0  0
    0.5620   16.8410   -5.5050 C   0  0  0  0  0  0  0  0  0  0  0  0
    2.6140   12.9850   -4.8130 C   0  0  0  0  0  0  0  0  0  0  0  0
    0.7330   12.8940   -6.1000 O   0  0  0  0  0  0  0  0  0  0  0  0
  1  2  1  0
  1  3  2  0
  4  1  1  1
  4  5  1  0
  4  6  1  0
  6  7  1  6
  5  8  1  0
  6  9  1  0
  8  9  1  0
  9 10  1  6
  7 11  1  0
  7 12  1  0
M  END
>  <%Rank>  (1028) 
78.396947

>  <N_hits>  (1028) 
2

>  <submitter_name>  (1028) 
nan

>  <original SMILES>  (1028) 
nan

>  <∆G_unbound>  (1028) 
0.427452

>  <∆G_bound>  (1028) 
-2.862531

>  <regarded>  (1028) 
mArh-5cb5_K_0_K_γ,mArh-x0950_0_A_α

>  <ref_pdb>  (1028) 
nan

>  <smiles>  (1028) 
CC1OCC(C(=O)O)C1N(C)O

>  <submitter_email>  (1028) 
nan

>  <disregarded>  (1028) 


>  <LE>  (1028) 
-0.274165

>  <submitter_institution>  (1028) 
nan

>  <ref_mols>  (1028) 
mArh-5cb5_K_0_K,mArh-x0950_0_A

>  <N_constrained_atoms>  (1028) 
12.0

>  <ref_url>  (1028) 
nan

>  <method>  (1028) 
nan

>  <comRMSD>  (1028) 
1.168454

>  <N_unconstrained_atoms>  (1028) 
0.0

>  <∆∆G>  (1028) 
-3.289983

>  <runtime>  (1028) 
24.615877

>  <generation_date>  (1028) 
nan

$$$$
mArh-4j4z_0_A_α-mArh-5cms_C_2_C_γ
     RDKit          3D

 20 21  0  0  0  0  0  0  0  0999 V2000
   -1.5630   17.8340   -4.0000 O   0  0  0  0  0  0  0  0  0  0  0  0
   -1.3860   16.9520   -5.1010 S   0  0  2  0  0  0  0  0  0  0  0  0
   -0.0430   16.5180   -5.6660 N   0  0  0  0  0  0  0  0  0  0  0  0
   -1.9050   17.6990   -6.4340 O   0  0  0  0  0  0  0  0  0  0  0  0
   -2.5530   15.6140   -5.0680 C   0  0  0  0  0  0  0  0  0  0  0  0
    0.6350   15.5960   -4.7360 C   0  0  1  0  0  0  0  0  0  0  0  0
    0.1910   15.7680   -3.3720 O   0  0  0  0  0  0  0  0  0  0  0  0
    0.2720   14.1510   -5.1730 C   0  0  1  0  0  0  0  0  0  0  0  0
    1.4580   13.4070   -5.5080 O   0  0  0  0  0  0  0  0  0  0  0  0
   -0.7870   14.7570   -3.0890 C   0  0  0  0  0  0  0  0  0  0  0  0
   -0.3940   13.5600   -3.9460 C   0  0  1  0  0  0  0  0  0  0  0  0
   -1.3990   12.5340   -4.1010 N   0  0  0  0  0  0  0  0  0  0  0  0
   -2.5190   12.4860   -3.1620 C   0  0  0  0  0  0  0  0  0  0  0  0
   -0.7230   11.2500   -4.1200 C   0  0  0  0  0  0  0  0  0  0  0  0
   -3.5830   11.4200   -3.5170 C   0  0  0  0  0  0  0  0  0  0  0  0
   -1.5910   10.0740   -3.7290 C   0  0  0  0  0  0  0  0  0  0  0  0
   -3.0130   10.1900   -4.0760 N   0  0  0  0  0  0  0  0  0  0  0  0
   -3.7760    9.0320   -3.6210 C   0  0  0  0  0  0  0  0  0  0  0  0
   -3.4980    7.7440   -4.3760 C   0  0  0  0  0  0  0  0  0  0  0  0
   -3.5570    6.6850   -3.4350 O   0  0  0  0  0  0  0  0  0  0  0  0
  1  2  2  0
  2  3  2  0
  2  4  1  0
  2  5  1  1
  6  3  1  6
  6  7  1  0
  6  8  1  0
  8  9  1  1
  7 10  1  0
  8 11  1  0
 10 11  1  0
 11 12  1  6
 12 13  1  0
 12 14  1  0
 13 15  1  0
 14 16  1  0
 15 17  1  0
 16 17  1  0
 17 18  1  0
 18 19  1  0
 19 20  1  0
M  END
>  <%Rank>  (1029) 
78.473282

>  <N_hits>  (1029) 
2

>  <submitter_name>  (1029) 
nan

>  <original SMILES>  (1029) 
nan

>  <∆G_unbound>  (1029) 
1.071685

>  <∆G_bound>  (1029) 
-4.235643

>  <regarded>  (1029) 
mArh-4j4z_0_A_α,mArh-5cms_C_2_C_γ

>  <ref_pdb>  (1029) 
nan

>  <smiles>  (1029) 
CS(=O)(O)=NC1OCC(N2CCN(CCO)CC2)C1O

>  <submitter_email>  (1029) 
nan

>  <disregarded>  (1029) 


>  <LE>  (1029) 
-0.265366

>  <submitter_institution>  (1029) 
nan

>  <ref_mols>  (1029) 
mArh-4j4z_0_A,mArh-5cms_C_2_C

>  <N_constrained_atoms>  (1029) 
20.0

>  <ref_url>  (1029) 
nan

>  <method>  (1029) 
nan

>  <comRMSD>  (1029) 
1.357241

>  <N_unconstrained_atoms>  (1029) 
0.0

>  <∆∆G>  (1029) 
-5.307328

>  <runtime>  (1029) 
38.960034

>  <generation_date>  (1029) 
nan

$$$$
5CMS_0_D_γ-mArh-5cb5_I_0_I_α
     RDKit          3D

 24 26  0  0  0  0  0  0  0  0999 V2000
   -4.0490   15.6550    1.6340 N   0  0  0  0  0  0  0  0  0  0  0  0
   -3.0030   14.9730    0.8910 C   0  0  1  0  0  0  0  0  0  0  0  0
   -2.6450   15.5660   -0.4870 C   0  0  1  0  0  0  0  0  0  0  0  0
   -1.8590   15.0480    1.7790 N   0  0  0  0  0  0  0  0  0  0  0  0
   -1.3980   14.8150   -0.8850 C   0  0  1  0  0  0  0  0  0  0  0  0
   -3.4870   15.4090   -1.7000 N   0  0  0  0  0  0  0  0  0  0  0  0
   -0.6170   14.4930    1.2600 C   0  0  0  0  0  0  0  0  0  0  0  0
   -1.1850   15.2810   -2.2160 N   0  0  0  0  0  0  0  0  0  0  0  0
   -2.5080   15.0910   -2.7850 C   0  0  2  0  0  0  0  0  0  0  0  0
   -0.3050   15.1030   -0.0120 N   0  0  0  0  0  0  0  0  0  0  0  0
   -2.7380   15.8860   -4.0990 C   0  0  0  0  0  0  0  0  0  0  0  0
   -1.7010   16.9700   -4.5260 C   0  0  0  0  0  0  0  0  0  0  0  0
   -2.0130   17.7030   -5.8560 C   0  0  0  0  0  0  0  0  0  0  0  0
   -2.1250   19.2460   -5.7320 C   0  0  0  0  0  0  0  0  0  0  0  0
   -3.1120   19.8420   -6.7400 C   0  0  0  0  0  0  0  0  0  0  0  0
   -4.0750   20.7620   -6.1810 O   0  0  0  0  0  0  0  0  0  0  0  0
   -4.7830   21.4600   -7.2180 C   0  0  2  0  0  0  0  0  0  0  0  0
   -4.2980   21.0190   -8.4750 O   0  0  0  0  0  0  0  0  0  0  0  0
   -4.5080   22.9830   -7.1400 C   0  0  2  0  0  0  0  0  0  0  0  0
   -5.7180   23.7640   -7.0600 O   0  0  0  0  0  0  0  0  0  0  0  0
   -3.3160   21.9510   -8.9100 C   0  0  1  0  0  0  0  0  0  0  0  0
   -3.8450   23.3000   -8.4880 C   0  0  1  0  0  0  0  0  0  0  0  0
   -1.9450   21.6540   -8.3040 C   0  0  0  0  0  0  0  0  0  0  0  0
   -4.7590   23.8500   -9.4470 O   0  0  0  0  0  0  0  0  0  0  0  0
  2  1  1  1
  2  3  1  0
  2  4  1  0
  3  5  1  0
  3  6  1  6
  4  7  1  0
  5  8  1  6
  6  9  1  0
  8  9  1  0
  5 10  1  0
  7 10  1  0
  9 11  1  6
 11 12  1  0
 12 13  1  0
 13 14  1  0
 14 15  1  0
 15 16  1  0
 17 16  1  1
 17 18  1  0
 17 19  1  0
 19 20  1  6
 18 21  1  0
 19 22  1  0
 21 22  1  0
 21 23  1  1
 22 24  1  6
M  END
>  <%Rank>  (1030) 
78.549618

>  <N_hits>  (1030) 
2

>  <submitter_name>  (1030) 
nan

>  <original SMILES>  (1030) 
nan

>  <∆G_unbound>  (1030) 
0.335171

>  <∆G_bound>  (1030) 
-8.67906

>  <regarded>  (1030) 
5CMS_0_D_γ,mArh-5cb5_I_0_I_α

>  <ref_pdb>  (1030) 
nan

>  <smiles>  (1030) 
CC1OC(OCCCCCC2NC3NCNC(N)C3N2)C(O)C1O

>  <submitter_email>  (1030) 
nan

>  <disregarded>  (1030) 


>  <LE>  (1030) 
-0.375593

>  <submitter_institution>  (1030) 
nan

>  <ref_mols>  (1030) 
5CMS_0_D,mArh-5cb5_I_0_I

>  <N_constrained_atoms>  (1030) 
19.0

>  <ref_url>  (1030) 
nan

>  <method>  (1030) 
nan

>  <comRMSD>  (1030) 
1.266627

>  <N_unconstrained_atoms>  (1030) 
5.0

>  <∆∆G>  (1030) 
-9.014231

>  <runtime>  (1030) 
45.173263

>  <generation_date>  (1030) 
nan

$$$$
mArh-5cms_A_0_A_α-5CB5_0_D_β
     RDKit          3D

 17 17  0  0  0  0  0  0  0  0999 V2000
   -1.9820   20.9560   -7.9460 C   0  0  0  0  0  0  0  0  0  0  0  0
   -0.4440   20.1380   -8.0970 P   0  0  0  0  0  0  0  0  0  0  0  0
   -0.3590   19.4110   -6.7510 O   0  0  0  0  0  0  0  0  0  0  0  0
   -2.2050   21.8790   -9.1290 C   0  0  1  0  0  0  0  0  0  0  0  0
    0.9420   20.8840   -7.7430 O   0  0  0  0  0  0  0  0  0  0  0  0
   -0.3730   18.5770   -8.7670 O   0  0  0  0  0  0  0  0  0  0  0  0
   -3.1630   21.4800  -10.0640 O   0  0  0  0  0  0  0  0  0  0  0  0
   -2.5470   23.2930   -8.7370 C   0  0  1  0  0  0  0  0  0  0  0  0
   -1.4540   24.0690   -8.9590 O   0  0  0  0  0  0  0  0  0  0  0  0
   -1.5580   18.6790   -5.8790 P   0  0  0  0  0  0  0  0  0  0  0  0
   -4.1080   22.4560  -10.2650 C   0  0  2  0  0  0  0  0  0  0  0  0
   -3.6840   23.7130   -9.6770 C   0  0  2  0  0  0  0  0  0  0  0  0
   -5.3360   22.2270   -9.6860 O   0  0  0  0  0  0  0  0  0  0  0  0
   -3.2880   24.5600  -10.7190 O   0  0  0  0  0  0  0  0  0  0  0  0
   -1.5420   17.0160   -5.6430 O   0  0  0  0  0  0  0  0  0  0  0  0
   -2.4430   18.4380   -7.1010 O   0  0  0  0  0  0  0  0  0  0  0  0
   -2.5610   19.5840   -5.0350 O   0  0  0  0  0  0  0  0  0  0  0  0
  1  2  1  0
  2  3  1  0
  4  1  1  1
  2  5  1  0
  2  6  1  0
  4  7  1  0
  4  8  1  0
  8  9  1  6
  3 10  1  0
  7 11  1  0
  8 12  1  0
 11 12  1  0
 11 13  1  1
 12 14  1  6
 10 15  1  0
 10 16  1  0
 10 17  1  0
M  CHG  2   5  -1  16  -1
M  END
>  <%Rank>  (1031) 
78.625954

>  <N_hits>  (1031) 
2

>  <submitter_name>  (1031) 
nan

>  <original SMILES>  (1031) 
nan

>  <∆G_unbound>  (1031) 
1.818629

>  <∆G_bound>  (1031) 
-4.234215

>  <regarded>  (1031) 
mArh-5cms_A_0_A_α,5CB5_0_D_β

>  <ref_pdb>  (1031) 
nan

>  <smiles>  (1031) 
[O-][PH](O)(O)O[PH]([O-])(O)CC1OC(O)C(O)C1O

>  <submitter_email>  (1031) 
nan

>  <disregarded>  (1031) 


>  <LE>  (1031) 
-0.35605

>  <submitter_institution>  (1031) 
nan

>  <ref_mols>  (1031) 
mArh-5cms_A_0_A,5CB5_0_D

>  <N_constrained_atoms>  (1031) 
17.0

>  <ref_url>  (1031) 
nan

>  <method>  (1031) 
nan

>  <comRMSD>  (1031) 
1.347977

>  <N_unconstrained_atoms>  (1031) 
0.0

>  <∆∆G>  (1031) 
-6.052844

>  <runtime>  (1031) 
33.658298

>  <generation_date>  (1031) 
nan

$$$$
mArh-4j4z_0_A_α-mArh-5cb5_N_0_N_γ
     RDKit          3D

 20 21  0  0  0  0  0  0  0  0999 V2000
   -1.6210   18.2240   -4.3390 O   0  0  0  0  0  0  0  0  0  0  0  0
   -1.4060   17.1580   -5.2470 S   0  0  2  0  0  0  0  0  0  0  0  0
   -0.0520   16.7120   -5.7550 N   0  0  0  0  0  0  0  0  0  0  0  0
   -1.9600   17.7010   -6.6500 O   0  0  0  0  0  0  0  0  0  0  0  0
   -2.5280   15.7950   -5.0180 C   0  0  0  0  0  0  0  0  0  0  0  0
    0.6260   15.8890   -4.7390 C   0  0  1  0  0  0  0  0  0  0  0  0
    0.1010   16.0880   -3.4140 O   0  0  0  0  0  0  0  0  0  0  0  0
    0.3920   14.4100   -5.1280 C   0  0  1  0  0  0  0  0  0  0  0  0
    1.6600   13.7910   -5.3950 O   0  0  0  0  0  0  0  0  0  0  0  0
   -0.7300   14.9640   -3.0620 C   0  0  0  0  0  0  0  0  0  0  0  0
   -0.2720   13.7790   -3.9130 C   0  0  1  0  0  0  0  0  0  0  0  0
   -1.2270   12.6770   -4.0540 N   0  0  0  0  0  0  0  0  0  0  0  0
   -2.4370   12.6460   -3.2170 C   0  0  0  0  0  0  0  0  0  0  0  0
   -0.5390   11.3940   -3.9430 C   0  0  0  0  0  0  0  0  0  0  0  0
   -3.4470   11.5360   -3.6060 C   0  0  0  0  0  0  0  0  0  0  0  0
   -1.4270   10.1870   -3.6350 C   0  0  0  0  0  0  0  0  0  0  0  0
   -2.8300   10.2910   -4.0740 N   0  0  0  0  0  0  0  0  0  0  0  0
   -3.6390    9.1450   -3.6520 C   0  0  0  0  0  0  0  0  0  0  0  0
   -3.3980    7.8580   -4.4290 C   0  0  0  0  0  0  0  0  0  0  0  0
   -3.5290    6.7810   -3.5110 O   0  0  0  0  0  0  0  0  0  0  0  0
  1  2  2  0
  2  3  2  0
  2  4  1  0
  2  5  1  1
  6  3  1  6
  6  7  1  0
  6  8  1  0
  8  9  1  1
  7 10  1  0
  8 11  1  0
 10 11  1  0
 11 12  1  6
 12 13  1  0
 12 14  1  0
 13 15  1  0
 14 16  1  0
 15 17  1  0
 16 17  1  0
 17 18  1  0
 18 19  1  0
 19 20  1  0
M  END
>  <%Rank>  (1032) 
78.70229

>  <N_hits>  (1032) 
2

>  <submitter_name>  (1032) 
nan

>  <original SMILES>  (1032) 
nan

>  <∆G_unbound>  (1032) 
1.071685

>  <∆G_bound>  (1032) 
-5.142694

>  <regarded>  (1032) 
mArh-4j4z_0_A_α,mArh-5cb5_N_0_N_γ

>  <ref_pdb>  (1032) 
nan

>  <smiles>  (1032) 
CS(=O)(O)=NC1OCC(N2CCN(CCO)CC2)C1O

>  <submitter_email>  (1032) 
nan

>  <disregarded>  (1032) 


>  <LE>  (1032) 
-0.310719

>  <submitter_institution>  (1032) 
nan

>  <ref_mols>  (1032) 
mArh-4j4z_0_A,mArh-5cb5_N_0_N

>  <N_constrained_atoms>  (1032) 
20.0

>  <ref_url>  (1032) 
nan

>  <method>  (1032) 
nan

>  <comRMSD>  (1032) 
1.387601

>  <N_unconstrained_atoms>  (1032) 
0.0

>  <∆∆G>  (1032) 
-6.214379

>  <runtime>  (1032) 
40.069278

>  <generation_date>  (1032) 
nan

$$$$
mArh-3vfq_B_0_A_α-5CB5_0_Q_δ
     RDKit          3D

 26 28  0  0  0  0  0  0  0  0999 V2000
   -4.0520   20.3130   -7.0790 C   0  0  0  0  0  0  0  0  0  0  0  0
   -4.7450   21.0900   -8.1530 C   0  0  2  0  0  0  0  0  0  0  0  0
   -4.1220   22.2710   -8.5840 O   0  0  0  0  0  0  0  0  0  0  0  0
   -6.1210   21.4850   -7.8880 C   0  0  1  0  0  0  0  0  0  0  0  0
   -5.9870   22.3820   -6.8160 O   0  0  0  0  0  0  0  0  0  0  0  0
   -4.9850   22.5610   -9.6850 C   0  0  1  0  0  0  0  0  0  0  0  0
   -6.3990   22.0870   -9.2770 C   0  0  2  0  0  0  0  0  0  0  0  0
   -4.9350   23.9580   -9.9340 O   0  0  0  0  0  0  0  0  0  0  0  0
   -7.3290   23.1630   -9.2400 O   0  0  0  0  0  0  0  0  0  0  0  0
   -4.8010   22.0960   -6.0080 C   0  0  0  0  0  0  0  0  0  0  0  0
   -3.6450   21.2980   -6.6720 C   0  0  0  0  0  0  0  0  0  0  0  0
   -2.7300   20.4220   -5.7470 C   0  0  0  0  0  0  0  0  0  0  0  0
   -2.2730   19.0070   -6.2330 C   0  0  0  0  0  0  0  0  0  0  0  0
   -1.5470   18.0690   -5.2380 C   0  0  0  0  0  0  0  0  0  0  0  0
   -2.1620   16.6700   -4.9080 C   0  0  0  0  0  0  0  0  0  0  0  0
   -1.9150   16.2660   -3.4410 C   0  0  0  0  0  0  0  0  0  0  0  0
   -2.4060   14.9150   -2.8990 C   0  0  1  0  0  0  0  0  0  0  0  0
   -1.2870   14.3120   -2.2340 N   0  0  0  0  0  0  0  0  0  0  0  0
   -3.3440   15.0460   -1.7650 N   0  0  0  0  0  0  0  0  0  0  0  0
   -1.0680   15.2670   -1.1480 C   0  0  1  0  0  0  0  0  0  0  0  0
   -2.4820   15.5240   -0.6360 C   0  0  2  0  0  0  0  0  0  0  0  0
   -0.0840   14.6560   -0.3340 N   0  0  0  0  0  0  0  0  0  0  0  0
   -2.7040   14.8660    0.7410 C   0  0  2  0  0  0  0  0  0  0  0  0
   -3.8650   15.3450    1.4820 N   0  0  0  0  0  0  0  0  0  0  0  0
   -0.2800   14.5860    1.0860 C   0  0  0  0  0  0  0  0  0  0  0  0
   -1.5520   15.0990    1.5730 N   0  0  0  0  0  0  0  0  0  0  0  0
  2  1  1  1
  2  3  1  0
  2  4  1  0
  4  5  1  1
  3  6  1  0
  4  7  1  0
  6  7  1  0
  6  8  1  1
  7  9  1  1
  5 10  1  0
 10 11  1  0
 11 12  1  0
 12 13  1  0
 13 14  1  0
 14 15  1  0
 15 16  1  0
 17 16  1  1
 17 18  1  0
 17 19  1  0
 20 18  1  6
 21 19  1  6
 20 21  1  0
 20 22  1  0
 21 23  1  0
 23 24  1  1
 22 25  1  0
 23 26  1  0
 25 26  1  0
M  END
>  <%Rank>  (1033) 
78.778626

>  <N_hits>  (1033) 
2

>  <submitter_name>  (1033) 
nan

>  <original SMILES>  (1033) 
nan

>  <∆G_unbound>  (1033) 
0.970381

>  <∆G_bound>  (1033) 
-0.37834

>  <regarded>  (1033) 
mArh-3vfq_B_0_A_α,5CB5_0_Q_δ

>  <ref_pdb>  (1033) 
nan

>  <smiles>  (1033) 
CC1OC(O)C(O)C1OCCCCCCCC1NC2NCNC(N)C2N1

>  <submitter_email>  (1033) 
nan

>  <disregarded>  (1033) 


>  <LE>  (1033) 
-0.051874

>  <submitter_institution>  (1033) 
nan

>  <ref_mols>  (1033) 
mArh-3vfq_B_0_A,5CB5_0_Q

>  <N_constrained_atoms>  (1033) 
19.0

>  <ref_url>  (1033) 
nan

>  <method>  (1033) 
nan

>  <comRMSD>  (1033) 
1.060318

>  <N_unconstrained_atoms>  (1033) 
7.0

>  <∆∆G>  (1033) 
-1.34872

>  <runtime>  (1033) 
50.53015

>  <generation_date>  (1033) 
nan

$$$$
5CB5_0_G_β-5CMS_0_L_α
     RDKit          3D

 17 17  0  0  0  0  0  0  0  0999 V2000
   -1.0360   21.2820   -9.1220 O   0  0  0  0  0  0  0  0  0  0  0  0
   -0.4900   20.0960   -8.0470 P   0  0  0  0  0  0  0  0  0  0  0  0
   -1.3640   19.8150   -6.6990 O   0  0  0  0  0  0  0  0  0  0  0  0
   -2.3870   21.5170   -9.4090 C   0  0  1  0  0  0  0  0  0  0  0  0
    0.2700   21.2430   -7.4220 O   0  0  0  0  0  0  0  0  0  0  0  0
   -1.1050   18.9170   -8.7480 O   0  0  0  0  0  0  0  0  0  0  0  0
   -3.3270   21.3110   -8.4610 O   0  0  0  0  0  0  0  0  0  0  0  0
   -2.5670   23.0400   -9.6060 C   0  0  2  0  0  0  0  0  0  0  0  0
   -1.4860   18.4730   -5.9480 P   0  0  0  0  0  0  0  0  0  0  0  0
   -1.4530   23.6760   -9.1240 O   0  0  0  0  0  0  0  0  0  0  0  0
   -4.3730   22.1330   -8.7880 C   0  0  2  0  0  0  0  0  0  0  0  0
   -3.7860   23.4690   -8.9080 C   0  0  2  0  0  0  0  0  0  0  0  0
   -1.4510   17.1150   -5.2290 O   0  0  0  0  0  0  0  0  0  0  0  0
   -2.6250   17.9450   -6.9930 O   0  0  0  0  0  0  0  0  0  0  0  0
   -2.0230   19.2790   -4.6300 O   0  0  0  0  0  0  0  0  0  0  0  0
   -5.4190   22.1740   -7.9130 O   0  0  0  0  0  0  0  0  0  0  0  0
   -4.4130   24.2560   -9.8980 O   0  0  0  0  0  0  0  0  0  0  0  0
  1  2  1  0
  2  3  1  0
  4  1  1  1
  2  5  1  0
  2  6  1  0
  4  7  1  0
  4  8  1  0
  3  9  1  0
  8 10  1  1
  7 11  1  0
  8 12  1  0
 11 12  1  0
  9 13  1  0
  9 14  1  0
  9 15  1  0
 11 16  1  1
 12 17  1  6
M  CHG  2   5  -1  14  -1
M  END
>  <%Rank>  (1034) 
78.854962

>  <N_hits>  (1034) 
2

>  <submitter_name>  (1034) 
nan

>  <original SMILES>  (1034) 
nan

>  <∆G_unbound>  (1034) 
0.972863

>  <∆G_bound>  (1034) 
-3.770825

>  <regarded>  (1034) 
5CB5_0_G_β,5CMS_0_L_α

>  <ref_pdb>  (1034) 
nan

>  <smiles>  (1034) 
[O-][PH](O)(O)O[PH]([O-])(O)OC1OC(O)C(O)C1O

>  <submitter_email>  (1034) 
nan

>  <disregarded>  (1034) 


>  <LE>  (1034) 
-0.279041

>  <submitter_institution>  (1034) 
nan

>  <ref_mols>  (1034) 
5CB5_0_G,5CMS_0_L

>  <N_constrained_atoms>  (1034) 
17.0

>  <ref_url>  (1034) 
nan

>  <method>  (1034) 
nan

>  <comRMSD>  (1034) 
1.31753

>  <N_unconstrained_atoms>  (1034) 
0.0

>  <∆∆G>  (1034) 
-4.743689

>  <runtime>  (1034) 
36.947706

>  <generation_date>  (1034) 
nan

$$$$
2FAV_0_B_δ-mArh-5mqx_0_A_β
     RDKit          3D

 19 20  0  0  0  0  0  0  0  0999 V2000
   -4.0700   15.3310    1.1570 N   0  0  0  0  0  0  0  0  0  0  0  0
   -3.0970   14.4700    0.4940 C   0  0  1  0  0  0  0  0  0  0  0  0
   -2.5480   14.9770   -0.8790 C   0  0  1  0  0  0  0  0  0  0  0  0
   -2.0390   14.3300    1.4890 N   0  0  0  0  0  0  0  0  0  0  0  0
   -1.3450   14.0780   -1.0510 C   0  0  1  0  0  0  0  0  0  0  0  0
   -3.3260   14.6540   -2.1510 N   0  0  0  0  0  0  0  0  0  0  0  0
   -0.7230   14.8440    1.0920 C   0  0  0  0  0  0  0  0  0  0  0  0
   -3.6450   15.9030   -2.9980 N   0  0  0  0  0  0  0  0  0  0  0  0
   -1.0550   14.1300   -2.4570 N   0  0  0  0  0  0  0  0  0  0  0  0
   -2.3990   13.8080   -2.9070 C   0  0  0  0  0  0  0  0  0  0  0  0
   -0.2420   14.3530   -0.1790 N   0  0  0  0  0  0  0  0  0  0  0  0
   -2.7370   16.2140   -4.4420 P   0  0  0  0  0  0  0  0  0  0  0  0
   -2.0150   17.6630   -4.4800 O   0  0  0  0  0  0  0  0  0  0  0  0
   -1.6990   15.0400   -4.5860 O   0  0  0  0  0  0  0  0  0  0  0  0
   -3.7500   16.0440   -5.6710 O   0  0  0  0  0  0  0  0  0  0  0  0
   -2.1700   18.9860   -5.4250 P   0  0  0  0  0  0  0  0  0  0  0  0
   -2.7600   18.3660   -6.7830 O   0  0  0  0  0  0  0  0  0  0  0  0
   -3.0140   20.1360   -4.8950 O   0  0  0  0  0  0  0  0  0  0  0  0
   -0.7210   19.4100   -5.8210 O   0  0  0  0  0  0  0  0  0  0  0  0
  2  1  1  1
  2  3  1  0
  2  4  1  0
  3  5  1  0
  3  6  1  6
  4  7  1  0
  6  8  1  0
  5  9  1  6
  6 10  1  0
  9 10  1  0
  5 11  1  0
  7 11  1  0
  8 12  2  3
 12 13  1  0
 12 14  1  0
 12 15  1  0
 13 16  1  0
 16 17  1  0
 16 18  2  0
 16 19  1  0
M  END
>  <%Rank>  (1035) 
78.931298

>  <N_hits>  (1035) 
2

>  <submitter_name>  (1035) 
nan

>  <original SMILES>  (1035) 
nan

>  <∆G_unbound>  (1035) 
1.491917

>  <∆G_bound>  (1035) 
0.292651

>  <regarded>  (1035) 
2FAV_0_B_δ,mArh-5mqx_0_A_β

>  <ref_pdb>  (1035) 
nan

>  <smiles>  (1035) 
NC1NCNC2NCN(N=P(O)(O)OP(=O)(O)O)C12

>  <submitter_email>  (1035) 
nan

>  <disregarded>  (1035) 


>  <LE>  (1035) 
-0.063119

>  <submitter_institution>  (1035) 
nan

>  <ref_mols>  (1035) 
2FAV_0_B,mArh-5mqx_0_A

>  <N_constrained_atoms>  (1035) 
19.0

>  <ref_url>  (1035) 
nan

>  <method>  (1035) 
nan

>  <comRMSD>  (1035) 
1.251208

>  <N_unconstrained_atoms>  (1035) 
0.0

>  <∆∆G>  (1035) 
-1.199266

>  <runtime>  (1035) 
40.379058

>  <generation_date>  (1035) 
nan

$$$$
mArh-5cms_J_9_J_β-5CB5_0_C_β
     RDKit          3D

 10  9  0  0  0  0  0  0  0  0999 V2000
    0.3810   21.4730   -7.7530 O   0  0  0  0  0  0  0  0  0  0  0  0
   -0.2150   19.8920   -7.7350 P   0  0  0  0  0  0  0  0  0  0  0  0
   -0.8340   19.5830   -6.2500 O   0  0  0  0  0  0  0  0  0  0  0  0
    0.8510   18.8420   -7.8840 O   0  0  0  0  0  0  0  0  0  0  0  0
   -1.2480   19.7500   -9.0120 O   0  0  0  0  0  0  0  0  0  0  0  0
   -1.4260   18.1000   -6.0580 P   0  0  0  0  0  0  0  0  0  0  0  0
   -0.4190   17.7260   -4.8480 O   0  0  0  0  0  0  0  0  0  0  0  0
   -1.1790   18.2410   -7.4590 O   0  0  0  0  0  0  0  0  0  0  0  0
   -2.4160   18.8350   -5.1260 O   0  0  0  0  0  0  0  0  0  0  0  0
   -2.8230   17.5070   -6.4430 O   0  0  0  0  0  0  0  0  0  0  0  0
  1  2  1  0
  2  3  1  0
  2  4  2  0
  2  5  1  0
  3  6  1  0
  6  7  1  0
  6  8  2  0
  6  9  1  0
  6 10  1  0
M  END
>  <%Rank>  (1036) 
79.007634

>  <N_hits>  (1036) 
2

>  <submitter_name>  (1036) 
nan

>  <original SMILES>  (1036) 
nan

>  <∆G_unbound>  (1036) 
0.726258

>  <∆G_bound>  (1036) 
-3.876153

>  <regarded>  (1036) 
mArh-5cms_J_9_J_β,5CB5_0_C_β

>  <ref_pdb>  (1036) 
nan

>  <smiles>  (1036) 
O=P(O)(O)O[PH](=O)(O)(O)O

>  <submitter_email>  (1036) 
nan

>  <disregarded>  (1036) 


>  <LE>  (1036) 
-0.460241

>  <submitter_institution>  (1036) 
nan

>  <ref_mols>  (1036) 
mArh-5cms_J_9_J,5CB5_0_C

>  <N_constrained_atoms>  (1036) 
10.0

>  <ref_url>  (1036) 
nan

>  <method>  (1036) 
nan

>  <comRMSD>  (1036) 
1.221079

>  <N_unconstrained_atoms>  (1036) 
0.0

>  <∆∆G>  (1036) 
-4.60241

>  <runtime>  (1036) 
28.656934

>  <generation_date>  (1036) 
nan

$$$$
mArh-5mqx_0_A_α-mArh-x0895_0_A_α
     RDKit          3D

 19 20  0  0  0  0  0  0  0  0999 V2000
   -5.9050   19.5170   -7.7250 C   0  0  0  0  0  0  0  0  0  0  0  0
   -6.6570   18.1920   -7.9250 C   0  0  2  0  0  0  0  0  0  0  0  0
   -6.0400   16.9610   -8.2750 O   0  0  0  0  0  0  0  0  0  0  0  0
   -7.9910   18.2110   -8.5850 C   0  0  1  0  0  0  0  0  0  0  0  0
   -7.9900   18.4260   -9.9820 O   0  0  0  0  0  0  0  0  0  0  0  0
   -6.9980   16.0770   -7.7330 C   0  0  2  0  0  0  0  0  0  0  0  0
   -8.3550   16.7710   -8.1910 C   0  0  2  0  0  0  0  0  0  0  0  0
   -6.7960   16.0080   -6.2770 O   0  0  0  0  0  0  0  0  0  0  0  0
   -8.8870   16.1990   -9.3800 O   0  0  0  0  0  0  0  0  0  0  0  0
   -6.5840   14.7230   -5.5790 C   0  0  0  0  0  0  0  0  0  0  0  0
   -5.3120   14.6100   -4.6410 C   0  0  0  0  0  0  0  0  0  0  0  0
   -5.5070   14.7750   -3.0760 C   0  0  0  0  0  0  0  0  0  0  0  0
   -4.1920   14.6880   -2.3450 N   0  0  0  0  0  0  0  0  0  0  0  0
   -3.8940   14.9160   -1.0730 C   0  0  0  0  0  0  0  0  0  0  0  0
   -4.7320   15.3110   -0.0690 N   0  0  0  0  0  0  0  0  0  0  0  0
   -2.6480   14.7900   -0.5160 N   0  0  0  0  0  0  0  0  0  0  0  0
   -4.1650   14.9480    1.2260 C   0  0  0  0  0  0  0  0  0  0  0  0
   -2.6920   14.7740    0.8670 C   0  0  0  0  0  0  0  0  0  0  0  0
   -1.7280   14.6360    1.6360 O   0  0  0  0  0  0  0  0  0  0  0  0
  2  1  1  6
  2  3  1  0
  2  4  1  0
  4  5  1  6
  3  6  1  0
  4  7  1  0
  6  7  1  0
  6  8  1  1
  7  9  1  6
  8 10  1  0
 10 11  1  0
 11 12  1  0
 12 13  1  0
 13 14  2  3
 14 15  1  0
 14 16  1  0
 15 17  1  0
 16 18  1  0
 17 18  1  0
 18 19  2  0
M  END
>  <%Rank>  (1037) 
79.083969

>  <N_hits>  (1037) 
2

>  <submitter_name>  (1037) 
nan

>  <original SMILES>  (1037) 
nan

>  <∆G_unbound>  (1037) 
0.406182

>  <∆G_bound>  (1037) 
-0.695464

>  <regarded>  (1037) 
mArh-5mqx_0_A_α,mArh-x0895_0_A_α

>  <ref_pdb>  (1037) 
nan

>  <smiles>  (1037) 
CC1OC(OCCCN=C2NCC(=O)N2)C(O)C1O

>  <submitter_email>  (1037) 
nan

>  <disregarded>  (1037) 


>  <LE>  (1037) 
-0.057981

>  <submitter_institution>  (1037) 
nan

>  <ref_mols>  (1037) 
mArh-5mqx_0_A,mArh-x0895_0_A

>  <N_constrained_atoms>  (1037) 
16.0

>  <ref_url>  (1037) 
nan

>  <method>  (1037) 
nan

>  <comRMSD>  (1037) 
1.092945

>  <N_unconstrained_atoms>  (1037) 
3.0

>  <∆∆G>  (1037) 
-1.101645

>  <runtime>  (1037) 
33.556103

>  <generation_date>  (1037) 
nan

$$$$
mArh-4j4z_0_A_α-mArh-5dus_0_A_α
     RDKit          3D

 27 28  0  0  0  0  0  0  0  0999 V2000
    0.0990   16.9910   -3.6230 O   0  0  0  0  0  0  0  0  0  0  0  0
   -0.6800   16.6350   -4.7760 S   0  0  0  0  0  0  0  0  0  0  0  0
    0.0000   16.5740   -6.0370 O   0  0  0  0  0  0  0  0  0  0  0  0
   -1.9520   17.6440   -4.9630 O   0  0  0  0  0  0  0  0  0  0  0  0
   -1.5430   15.1000   -4.5120 C   0  0  0  0  0  0  0  0  0  0  0  0
   -0.5860   13.9440   -4.2580 C   0  0  0  0  0  0  0  0  0  0  0  0
   -1.5640   18.9620   -5.2700 C   0  0  0  0  0  0  0  0  0  0  0  0
   -2.0680   19.4080   -6.6340 C   0  0  0  0  0  0  0  0  0  0  0  0
   -1.1600   12.6110   -4.3860 N   0  0  0  0  0  0  0  0  0  0  0  0
   -1.9990   20.9320   -6.6740 C   0  0  0  0  0  0  0  0  0  0  0  0
   -2.3230   12.5300   -5.2790 C   0  0  0  0  0  0  0  0  0  0  0  0
   -0.2030   11.5070   -4.5620 C   0  0  0  0  0  0  0  0  0  0  0  0
   -2.1520   21.5710   -8.0420 C   0  0  0  0  0  0  0  0  0  0  0  0
   -2.8090   11.0800   -5.5980 C   0  0  0  0  0  0  0  0  0  0  0  0
   -0.7750   10.0670   -4.4650 C   0  0  0  0  0  0  0  0  0  0  0  0
   -2.1950    9.9420   -4.8680 N   0  0  0  0  0  0  0  0  0  0  0  0
   -3.6030   21.8760   -8.3960 C   0  0  1  0  0  0  0  0  0  0  0  0
   -2.7910    8.6020   -5.0880 C   0  0  0  0  0  0  0  0  0  0  0  0
   -4.4160   21.0180   -7.5820 O   0  0  0  0  0  0  0  0  0  0  0  0
   -4.0080   23.3320   -8.1170 C   0  0  1  0  0  0  0  0  0  0  0  0
   -1.8250    7.6300   -5.7430 C   0  0  0  0  0  0  0  0  0  0  0  0
   -4.3360   23.9690   -9.3530 O   0  0  0  0  0  0  0  0  0  0  0  0
   -5.5460   21.7460   -7.1480 C   0  0  2  0  0  0  0  0  0  0  0  0
   -5.3110   23.2410   -7.3590 C   0  0  1  0  0  0  0  0  0  0  0  0
   -0.5470    7.7860   -5.1660 O   0  0  0  0  0  0  0  0  0  0  0  0
   -5.7470   21.5030   -5.7670 O   0  0  0  0  0  0  0  0  0  0  0  0
   -5.2650   23.9510   -6.1240 O   0  0  0  0  0  0  0  0  0  0  0  0
  1  2  2  0
  2  3  2  0
  2  4  1  0
  2  5  1  0
  5  6  1  0
  4  7  1  0
  7  8  1  0
  6  9  1  0
  8 10  1  0
  9 11  1  0
  9 12  1  0
 10 13  1  0
 11 14  1  0
 12 15  1  0
 14 16  1  0
 15 16  1  0
 17 13  1  1
 16 18  1  0
 17 19  1  0
 17 20  1  0
 18 21  1  0
 20 22  1  6
 19 23  1  0
 20 24  1  0
 23 24  1  0
 21 25  1  0
 23 26  1  1
 24 27  1  1
M  END
>  <%Rank>  (1038) 
79.160305

>  <N_hits>  (1038) 
2

>  <submitter_name>  (1038) 
nan

>  <original SMILES>  (1038) 
nan

>  <∆G_unbound>  (1038) 
0.633966

>  <∆G_bound>  (1038) 
-9.749408

>  <regarded>  (1038) 
mArh-4j4z_0_A_α,mArh-5dus_0_A_α

>  <ref_pdb>  (1038) 
nan

>  <smiles>  (1038) 
O=S(=O)(CCN1CCN(CCO)CC1)OCCCCC1OC(O)C(O)C1O

>  <submitter_email>  (1038) 
nan

>  <disregarded>  (1038) 


>  <LE>  (1038) 
-0.384569

>  <submitter_institution>  (1038) 
nan

>  <ref_mols>  (1038) 
mArh-4j4z_0_A,mArh-5dus_0_A

>  <N_constrained_atoms>  (1038) 
24.0

>  <ref_url>  (1038) 
nan

>  <method>  (1038) 
nan

>  <comRMSD>  (1038) 
1.443761

>  <N_unconstrained_atoms>  (1038) 
3.0

>  <∆∆G>  (1038) 
-10.383373

>  <runtime>  (1038) 
70.877309

>  <generation_date>  (1038) 
nan

$$$$
5CMS_0_A_α-5CB5_0_H_β
     RDKit          3D

 17 17  0  0  0  0  0  0  0  0999 V2000
   -2.2750   21.1430   -8.0560 C   0  0  0  0  0  0  0  0  0  0  0  0
   -0.7680   20.2940   -7.9930 P   0  0  0  0  0  0  0  0  0  0  0  0
   -0.9940   19.8880   -6.5200 O   0  0  0  0  0  0  0  0  0  0  0  0
   -2.3300   22.0250   -9.2490 C   0  0  1  0  0  0  0  0  0  0  0  0
    0.6340   21.0260   -7.6440 O   0  0  0  0  0  0  0  0  0  0  0  0
   -0.6790   18.6540   -8.4320 O   0  0  0  0  0  0  0  0  0  0  0  0
   -3.1880   21.6340  -10.2730 O   0  0  0  0  0  0  0  0  0  0  0  0
   -2.7010   23.4210   -8.8600 C   0  0  1  0  0  0  0  0  0  0  0  0
   -1.5940   24.1950   -8.9850 O   0  0  0  0  0  0  0  0  0  0  0  0
   -1.2440   18.3710   -5.9120 P   0  0  0  0  0  0  0  0  0  0  0  0
   -4.1970   22.5510  -10.4110 C   0  0  2  0  0  0  0  0  0  0  0  0
   -3.7870   23.8290   -9.8620 C   0  0  2  0  0  0  0  0  0  0  0  0
   -5.3530   22.2580   -9.7230 O   0  0  0  0  0  0  0  0  0  0  0  0
   -3.3350   24.6830  -10.8850 O   0  0  0  0  0  0  0  0  0  0  0  0
   -0.1890   17.1610   -6.3430 O   0  0  0  0  0  0  0  0  0  0  0  0
   -2.2350   18.0550   -7.0350 O   0  0  0  0  0  0  0  0  0  0  0  0
   -2.2430   18.0130   -4.7260 O   0  0  0  0  0  0  0  0  0  0  0  0
  1  2  1  0
  2  3  1  0
  4  1  1  1
  2  5  1  0
  2  6  1  0
  4  7  1  0
  4  8  1  0
  8  9  1  6
  3 10  1  0
  7 11  1  0
  8 12  1  0
 11 12  1  0
 11 13  1  1
 12 14  1  6
 10 15  1  0
 10 16  1  0
 10 17  1  0
M  CHG  2   5  -1  16  -1
M  END
>  <%Rank>  (1039) 
79.236641

>  <N_hits>  (1039) 
2

>  <submitter_name>  (1039) 
nan

>  <original SMILES>  (1039) 
nan

>  <∆G_unbound>  (1039) 
1.818629

>  <∆G_bound>  (1039) 
-3.347508

>  <regarded>  (1039) 
5CMS_0_A_α,5CB5_0_H_β

>  <ref_pdb>  (1039) 
nan

>  <smiles>  (1039) 
[O-][PH](O)(O)O[PH]([O-])(O)CC1OC(O)C(O)C1O

>  <submitter_email>  (1039) 
nan

>  <disregarded>  (1039) 


>  <LE>  (1039) 
-0.30389

>  <submitter_institution>  (1039) 
nan

>  <ref_mols>  (1039) 
5CMS_0_A,5CB5_0_H

>  <N_constrained_atoms>  (1039) 
17.0

>  <ref_url>  (1039) 
nan

>  <method>  (1039) 
nan

>  <comRMSD>  (1039) 
1.347559

>  <N_unconstrained_atoms>  (1039) 
0.0

>  <∆∆G>  (1039) 
-5.166137

>  <runtime>  (1039) 
36.806546

>  <generation_date>  (1039) 
nan

$$$$
5CB5_0_R_β-mArh-x0592_0_A_α
     RDKit          3D

 23 23  0  0  0  0  0  0  0  0999 V2000
   -2.9020   21.1230   -7.7970 O   0  0  0  0  0  0  0  0  0  0  0  0
   -1.6080   20.1250   -7.3890 P   0  0  0  0  0  0  0  0  0  0  0  0
   -1.5600   19.4160   -5.9020 O   0  0  0  0  0  0  0  0  0  0  0  0
   -0.5180   19.7100   -8.5570 O   0  0  0  0  0  0  0  0  0  0  0  0
   -0.8010   21.3540   -7.0140 O   0  0  0  0  0  0  0  0  0  0  0  0
   -1.2470   17.9220   -5.7730 P   0  0  0  0  0  0  0  0  0  0  0  0
    0.2540   18.0100   -6.3340 O   0  0  0  0  0  0  0  0  0  0  0  0
   -2.5410   17.6980   -6.8170 O   0  0  0  0  0  0  0  0  0  0  0  0
   -1.5270   17.8030   -4.1550 O   0  0  0  0  0  0  0  0  0  0  0  0
   -0.8770   16.6980   -3.6540 C   0  0  0  0  0  0  0  0  0  0  0  0
   -1.6110   15.9690   -2.5330 C   0  0  0  0  0  0  0  0  0  0  0  0
   -0.7560   15.8840   -1.2770 C   0  0  0  0  0  0  0  0  0  0  0  0
   -1.3530   15.2840   -0.1500 N   0  0  0  0  0  0  0  0  0  0  0  0
   -2.3990   14.9240    0.4280 C   0  0  0  0  0  0  0  0  0  0  0  0
   -2.2990   14.2830    1.7550 N   0  0  0  0  0  0  0  0  0  0  0  0
   -3.7810   15.0190   -0.0220 C   0  0  0  0  0  0  0  0  0  0  0  0
   -4.2790   15.6730   -1.1640 C   0  0  0  0  0  0  0  0  0  0  0  0
   -4.8800   14.4940    0.5900 C   0  0  0  0  0  0  0  0  0  0  0  0
   -5.6230   15.5110   -1.1890 N   0  0  0  0  0  0  0  0  0  0  0  0
   -5.9640   14.7990   -0.1370 N   0  0  0  0  0  0  0  0  0  0  0  0
   -7.3130   14.3910    0.2460 C   0  0  0  0  0  0  0  0  0  0  0  0
   -7.2530   13.9180    1.6970 C   0  0  0  0  0  0  0  0  0  0  0  0
   -6.6900   14.8830    2.5340 O   0  0  0  0  0  0  0  0  0  0  0  0
  1  2  1  0
  2  3  1  0
  2  4  1  0
  2  5  1  0
  3  6  1  0
  6  7  1  0
  6  8  1  0
  6  9  1  0
  9 10  1  0
 10 11  1  0
 11 12  1  0
 12 13  1  0
 13 14  2  3
 14 15  1  0
 14 16  1  0
 16 17  1  0
 16 18  2  0
 17 19  2  0
 18 20  1  0
 19 20  1  0
 20 21  1  0
 21 22  1  0
 22 23  1  0
M  CHG  2   4  -1   8  -1
M  END
>  <%Rank>  (1040) 
79.312977

>  <N_hits>  (1040) 
2

>  <submitter_name>  (1040) 
nan

>  <original SMILES>  (1040) 
nan

>  <∆G_unbound>  (1040) 
0.8063

>  <∆G_bound>  (1040) 
-12.176943

>  <regarded>  (1040) 
5CB5_0_R_β,mArh-x0592_0_A_α

>  <ref_pdb>  (1040) 
nan

>  <smiles>  (1040) 
NC(=NCCCO[PH]([O-])(O)O[PH]([O-])(O)O)c1cnn(CCO)c1

>  <submitter_email>  (1040) 
nan

>  <disregarded>  (1040) 


>  <LE>  (1040) 
-0.564489

>  <submitter_institution>  (1040) 
nan

>  <ref_mols>  (1040) 
5CB5_0_R,mArh-x0592_0_A

>  <N_constrained_atoms>  (1040) 
20.0

>  <ref_url>  (1040) 
nan

>  <method>  (1040) 
nan

>  <comRMSD>  (1040) 
1.467444

>  <N_unconstrained_atoms>  (1040) 
3.0

>  <∆∆G>  (1040) 
-12.983243

>  <runtime>  (1040) 
30.885427

>  <generation_date>  (1040) 
nan

$$$$
6WOJ_0_A_δ-5CB5_0_J_α
     RDKit          3D

 24 26  0  0  0  0  0  0  0  0999 V2000
   -4.0810   15.1860    1.1240 N   0  0  0  0  0  0  0  0  0  0  0  0
   -2.9250   14.4570    0.6410 C   0  0  1  0  0  0  0  0  0  0  0  0
   -2.6730   14.4410   -0.8980 C   0  0  2  0  0  0  0  0  0  0  0  0
   -1.8030   15.0300    1.3690 N   0  0  0  0  0  0  0  0  0  0  0  0
   -1.2080   14.7020   -1.0840 C   0  0  2  0  0  0  0  0  0  0  0  0
   -3.1520   15.4240   -1.9020 N   0  0  0  0  0  0  0  0  0  0  0  0
   -0.5550   14.3000    1.1680 C   0  0  0  0  0  0  0  0  0  0  0  0
   -1.1120   14.3770   -2.4910 N   0  0  0  0  0  0  0  0  0  0  0  0
   -2.2450   15.1250   -3.0660 C   0  0  2  0  0  0  0  0  0  0  0  0
   -0.3880   13.8880   -0.2260 N   0  0  0  0  0  0  0  0  0  0  0  0
   -1.7630   16.4090   -3.8190 C   0  0  0  0  0  0  0  0  0  0  0  0
   -2.2390   16.7080   -5.2630 C   0  0  0  0  0  0  0  0  0  0  0  0
   -1.5320   17.9090   -5.9810 C   0  0  0  0  0  0  0  0  0  0  0  0
   -2.0970   19.3430   -5.7310 C   0  0  0  0  0  0  0  0  0  0  0  0
   -3.1750   19.8150   -6.7230 C   0  0  0  0  0  0  0  0  0  0  0  0
   -4.0710   20.8230   -6.1780 O   0  0  0  0  0  0  0  0  0  0  0  0
   -4.7750   21.5420   -7.2050 C   0  0  2  0  0  0  0  0  0  0  0  0
   -4.3090   21.1030   -8.4700 O   0  0  0  0  0  0  0  0  0  0  0  0
   -4.4890   23.0630   -7.1090 C   0  0  2  0  0  0  0  0  0  0  0  0
   -5.7010   23.8520   -7.0820 O   0  0  0  0  0  0  0  0  0  0  0  0
   -3.2960   22.0090   -8.8910 C   0  0  1  0  0  0  0  0  0  0  0  0
   -3.7460   23.3750   -8.4170 C   0  0  1  0  0  0  0  0  0  0  0  0
   -1.9280   21.6160   -8.3470 C   0  0  0  0  0  0  0  0  0  0  0  0
   -4.5780   24.0160   -9.3810 O   0  0  0  0  0  0  0  0  0  0  0  0
  2  1  1  6
  2  3  1  0
  2  4  1  0
  3  5  1  0
  3  6  1  6
  4  7  1  0
  5  8  1  6
  6  9  1  0
  8  9  1  0
  5 10  1  0
  7 10  1  0
  9 11  1  1
 11 12  1  0
 12 13  1  0
 13 14  1  0
 14 15  1  0
 15 16  1  0
 17 16  1  1
 17 18  1  0
 17 19  1  0
 19 20  1  6
 18 21  1  0
 19 22  1  0
 21 22  1  0
 21 23  1  1
 22 24  1  6
M  END
>  <%Rank>  (1041) 
79.389313

>  <N_hits>  (1041) 
2

>  <submitter_name>  (1041) 
nan

>  <original SMILES>  (1041) 
nan

>  <∆G_unbound>  (1041) 
0.335171

>  <∆G_bound>  (1041) 
-9.162167

>  <regarded>  (1041) 
6WOJ_0_A_δ,5CB5_0_J_α

>  <ref_pdb>  (1041) 
nan

>  <smiles>  (1041) 
CC1OC(OCCCCCC2NC3NCNC(N)C3N2)C(O)C1O

>  <submitter_email>  (1041) 
nan

>  <disregarded>  (1041) 


>  <LE>  (1041) 
-0.395722

>  <submitter_institution>  (1041) 
nan

>  <ref_mols>  (1041) 
6WOJ_0_A,5CB5_0_J

>  <N_constrained_atoms>  (1041) 
19.0

>  <ref_url>  (1041) 
nan

>  <method>  (1041) 
nan

>  <comRMSD>  (1041) 
1.316586

>  <N_unconstrained_atoms>  (1041) 
5.0

>  <∆∆G>  (1041) 
-9.497338

>  <runtime>  (1041) 
66.510563

>  <generation_date>  (1041) 
nan

$$$$
mArh-5mqx_0_A_β-4IQY_0_B_δ
     RDKit          3D

 19 20  0  0  0  0  0  0  0  0999 V2000
   -2.7130   18.3780   -6.8540 O   0  0  0  0  0  0  0  0  0  0  0  0
   -2.0500   18.6570   -5.4320 P   0  0  0  0  0  0  0  0  0  0  0  0
   -1.9300   17.2110   -4.7000 O   0  0  0  0  0  0  0  0  0  0  0  0
   -2.7120   19.7260   -4.6480 O   0  0  0  0  0  0  0  0  0  0  0  0
   -0.5790   19.1050   -5.7670 O   0  0  0  0  0  0  0  0  0  0  0  0
   -2.9050   15.9210   -4.6460 P   0  0  0  0  0  0  0  0  0  0  0  0
   -2.0520   14.6280   -4.9210 O   0  0  0  0  0  0  0  0  0  0  0  0
   -3.6360   15.7060   -3.1280 N   0  0  0  0  0  0  0  0  0  0  0  0
   -3.9750   15.9480   -5.8110 O   0  0  0  0  0  0  0  0  0  0  0  0
   -3.3900   14.4320   -2.4940 C   0  0  1  0  0  0  0  0  0  0  0  0
   -1.9540   14.4370   -2.2260 N   0  0  0  0  0  0  0  0  0  0  0  0
   -4.0860   14.3690   -1.1850 N   0  0  0  0  0  0  0  0  0  0  0  0
   -1.8640   14.3620   -0.8000 C   0  0  2  0  0  0  0  0  0  0  0  0
   -3.1210   15.1600   -0.4570 C   0  0  2  0  0  0  0  0  0  0  0  0
   -0.5950   14.8350   -0.3050 N   0  0  0  0  0  0  0  0  0  0  0  0
   -3.1040   15.4550    1.0520 C   0  0  1  0  0  0  0  0  0  0  0  0
   -4.2450   14.9980    1.8130 N   0  0  0  0  0  0  0  0  0  0  0  0
   -0.6770   15.2180    1.0710 C   0  0  0  0  0  0  0  0  0  0  0  0
   -1.9520   14.8320    1.6870 N   0  0  0  0  0  0  0  0  0  0  0  0
  1  2  1  0
  2  3  1  0
  2  4  2  0
  2  5  1  0
  3  6  1  0
  6  7  1  0
  6  8  2  3
  6  9  1  0
 10  8  1  1
 10 11  1  0
 10 12  1  0
 13 11  1  6
 14 12  1  1
 13 14  1  0
 13 15  1  0
 14 16  1  0
 16 17  1  1
 15 18  1  0
 16 19  1  0
 18 19  1  0
M  END
>  <%Rank>  (1042) 
79.465649

>  <N_hits>  (1042) 
2

>  <submitter_name>  (1042) 
nan

>  <original SMILES>  (1042) 
nan

>  <∆G_unbound>  (1042) 
1.820369

>  <∆G_bound>  (1042) 
-2.170339

>  <regarded>  (1042) 
mArh-5mqx_0_A_β,4IQY_0_B_δ

>  <ref_pdb>  (1042) 
nan

>  <smiles>  (1042) 
NC1NCNC2NC(N=P(O)(O)OP(=O)(O)O)NC12

>  <submitter_email>  (1042) 
nan

>  <disregarded>  (1042) 


>  <LE>  (1042) 
-0.210037

>  <submitter_institution>  (1042) 
nan

>  <ref_mols>  (1042) 
mArh-5mqx_0_A,4IQY_0_B

>  <N_constrained_atoms>  (1042) 
19.0

>  <ref_url>  (1042) 
nan

>  <method>  (1042) 
nan

>  <comRMSD>  (1042) 
1.359098

>  <N_unconstrained_atoms>  (1042) 
0.0

>  <∆∆G>  (1042) 
-3.990708

>  <runtime>  (1042) 
29.859769

>  <generation_date>  (1042) 
nan

$$$$
mArh-5lw0_A_0_A_α-mArh-5fud_B_0_B_α
     RDKit          3D

 20 21  0  0  0  0  0  0  0  0999 V2000
   -2.6140   21.3130   -8.3530 C   0  0  1  0  0  0  0  0  0  0  0  0
   -1.9310   22.6170   -7.9860 C   0  0  0  0  0  0  0  0  0  0  0  0
   -2.8540   23.7750   -8.1390 N   0  0  0  0  0  0  0  0  0  0  0  0
   -1.7460   19.9460   -7.4780 S   0  0  0  0  0  0  0  0  0  0  0  0
   -4.1280   21.4980   -8.0240 C   0  0  2  0  0  0  0  0  0  0  0  0
   -2.7570   19.4260   -6.5600 O   0  0  0  0  0  0  0  0  0  0  0  0
   -0.6620   20.6350   -6.8130 O   0  0  0  0  0  0  0  0  0  0  0  0
   -1.2530   18.9120   -8.4230 O   0  0  0  0  0  0  0  0  0  0  0  0
   -4.6890   20.3770   -7.3250 O   0  0  0  0  0  0  0  0  0  0  0  0
   -5.2110   21.9030   -9.0970 C   0  0  2  0  0  0  0  0  0  0  0  0
   -5.7410   23.2090   -8.8550 O   0  0  0  0  0  0  0  0  0  0  0  0
   -6.0360   20.7620   -7.3420 C   0  0  1  0  0  0  0  0  0  0  0  0
   -6.4320   21.0880   -8.7310 C   0  0  1  0  0  0  0  0  0  0  0  0
   -3.6940   23.6030   -9.3610 C   0  0  0  0  0  0  0  0  0  0  0  0
   -3.5900   24.0100   -6.8670 C   0  0  0  0  0  0  0  0  0  0  0  0
   -6.8270   19.6860   -7.0590 O   0  0  0  0  0  0  0  0  0  0  0  0
   -7.7050   21.6740   -8.8340 O   0  0  0  0  0  0  0  0  0  0  0  0
   -5.1990   23.8930   -9.2890 C   0  0  0  0  0  0  0  0  0  0  0  0
   -5.1050   23.9970   -6.9360 C   0  0  0  0  0  0  0  0  0  0  0  0
   -5.6020   24.6030   -8.1190 O   0  0  0  0  0  0  0  0  0  0  0  0
  1  2  1  1
  2  3  1  0
  1  4  1  0
  1  5  1  0
  4  6  2  0
  4  7  2  0
  4  8  1  0
  5  9  1  6
  5 10  1  0
 10 11  1  1
  9 12  1  0
 10 13  1  0
 12 13  1  0
  3 14  1  0
  3 15  1  0
 12 16  1  6
 13 17  1  1
 14 18  1  0
 15 19  1  0
 18 20  1  0
 19 20  1  0
M  CHG  1   8  -1
M  END
>  <%Rank>  (1043) 
79.541985

>  <N_hits>  (1043) 
2

>  <submitter_name>  (1043) 
nan

>  <original SMILES>  (1043) 
nan

>  <∆G_unbound>  (1043) 
1.713892

>  <∆G_bound>  (1043) 
3.213459

>  <regarded>  (1043) 
mArh-5lw0_A_0_A_α,mArh-5fud_B_0_B_α

>  <ref_pdb>  (1043) 
nan

>  <smiles>  (1043) 
O=S(=O)([O-])C(CN1CCOCC1)C1OC(O)C(O)C1O

>  <submitter_email>  (1043) 
nan

>  <disregarded>  (1043) 


>  <LE>  (1043) 
0.074978

>  <submitter_institution>  (1043) 
nan

>  <ref_mols>  (1043) 
mArh-5lw0_A_0_A,mArh-5fud_B_0_B

>  <N_constrained_atoms>  (1043) 
20.0

>  <ref_url>  (1043) 
nan

>  <method>  (1043) 
nan

>  <comRMSD>  (1043) 
1.236712

>  <N_unconstrained_atoms>  (1043) 
0.0

>  <∆∆G>  (1043) 
1.499567

>  <runtime>  (1043) 
101.75189

>  <generation_date>  (1043) 
nan

$$$$
mArh-5cms_C_2_C_α-mArh-3ew5_A_0_A_α
     RDKit          3D

 18 18  0  0  0  0  0  0  0  0999 V2000
   -2.7780   21.8560   -8.1380 C   0  0  2  0  0  0  0  0  0  0  0  0
   -2.1590   20.5340   -7.9830 O   0  0  0  0  0  0  0  0  0  0  0  0
   -0.5790   20.3040   -7.7680 P   0  0  0  0  0  0  0  0  0  0  0  0
   -3.4200   22.2260   -6.7910 C   0  0  2  0  0  0  0  0  0  0  0  0
   -3.9230   21.8120   -9.1960 C   0  0  1  0  0  0  0  0  0  0  0  0
   -4.9470   22.0380   -6.7370 C   0  0  0  0  0  0  0  0  0  0  0  0
   -3.2190   23.6300   -6.5610 O   0  0  0  0  0  0  0  0  0  0  0  0
   -5.0470   22.5940   -8.9060 O   0  0  0  0  0  0  0  0  0  0  0  0
   -3.6140   22.2460  -10.5850 C   0  0  1  0  0  0  0  0  0  0  0  0
   -4.4650   22.0710  -11.7040 O   0  0  0  0  0  0  0  0  0  0  0  0
    0.3050   21.5020   -7.7510 O   0  0  0  0  0  0  0  0  0  0  0  0
   -0.1830   19.1720   -8.8240 O   0  0  0  0  0  0  0  0  0  0  0  0
   -0.4470   19.4310   -6.4500 O   0  0  0  0  0  0  0  0  0  0  0  0
   -5.5810   23.3120   -6.6240 O   0  0  0  0  0  0  0  0  0  0  0  0
   -4.7230   23.8570   -9.3780 C   0  0  2  0  0  0  0  0  0  0  0  0
   -3.5450   23.7200  -10.2450 C   0  0  2  0  0  0  0  0  0  0  0  0
   -4.3150   24.5960   -8.2860 O   0  0  0  0  0  0  0  0  0  0  0  0
   -3.6920   24.6330  -11.3650 O   0  0  0  0  0  0  0  0  0  0  0  0
  1  2  1  1
  2  3  1  0
  1  4  1  0
  1  5  1  0
  4  6  1  0
  4  7  1  6
  5  8  1  1
  5  9  1  0
  9 10  1  6
  3 11  2  0
  3 12  1  0
  3 13  1  0
  6 14  1  0
  8 15  1  0
  9 16  1  0
 15 16  1  0
 15 17  1  1
 16 18  1  6
M  END
>  <%Rank>  (1044) 
79.618321

>  <N_hits>  (1044) 
2

>  <submitter_name>  (1044) 
nan

>  <original SMILES>  (1044) 
nan

>  <∆G_unbound>  (1044) 
3.099708

>  <∆G_bound>  (1044) 
-1.655244

>  <regarded>  (1044) 
mArh-5cms_C_2_C_α,mArh-3ew5_A_0_A_α

>  <ref_pdb>  (1044) 
nan

>  <smiles>  (1044) 
O=P(O)(O)OC(C1OC(O)C(O)C1O)[C@@H](O)CO

>  <submitter_email>  (1044) 
nan

>  <disregarded>  (1044) 


>  <LE>  (1044) 
-0.264164

>  <submitter_institution>  (1044) 
nan

>  <ref_mols>  (1044) 
mArh-5cms_C_2_C,mArh-3ew5_A_0_A

>  <N_constrained_atoms>  (1044) 
18.0

>  <ref_url>  (1044) 
nan

>  <method>  (1044) 
nan

>  <comRMSD>  (1044) 
1.368751

>  <N_unconstrained_atoms>  (1044) 
0.0

>  <∆∆G>  (1044) 
-4.754952

>  <runtime>  (1044) 
30.905036

>  <generation_date>  (1044) 
nan

$$$$
mArh-x0805_0_A_α-5CB5_0_R_β
     RDKit          3D

 19 19  0  0  0  0  0  0  0  0999 V2000
   -2.9420   15.1360   -0.1880 O   0  0  0  0  0  0  0  0  0  0  0  0
   -3.9340   15.6790    0.6470 C   0  0  0  0  0  0  0  0  0  0  0  0
   -3.2660   14.6640   -1.4720 C   0  0  0  0  0  0  0  0  0  0  0  0
   -4.3960   13.9040   -1.5570 C   0  0  0  0  0  0  0  0  0  0  0  0
   -2.3700   15.0610   -2.5100 C   0  0  0  0  0  0  0  0  0  0  0  0
   -1.6680   15.2870   -3.7950 C   0  0  0  0  0  0  0  0  0  0  0  0
   -2.9740   14.4400   -3.5930 C   0  0  0  0  0  0  0  0  0  0  0  0
   -4.8250   13.3950   -2.7060 C   0  0  0  0  0  0  0  0  0  0  0  0
   -2.6140   16.2720   -4.5430 C   0  0  0  0  0  0  0  0  0  0  0  0
   -4.0840   13.6650   -3.7850 C   0  0  0  0  0  0  0  0  0  0  0  0
   -2.2880   16.4050   -5.8240 O   0  0  0  0  0  0  0  0  0  0  0  0
   -1.3530   17.7410   -6.0810 P   0  0  0  0  0  0  0  0  0  0  0  0
   -1.5730   18.5810   -7.3900 O   0  0  0  0  0  0  0  0  0  0  0  0
   -0.0730   18.0850   -5.0850 O   0  0  0  0  0  0  0  0  0  0  0  0
   -2.2840   18.6110   -5.2810 O   0  0  0  0  0  0  0  0  0  0  0  0
   -0.5280   19.7330   -7.6980 P   0  0  0  0  0  0  0  0  0  0  0  0
   -1.0190   21.0050   -8.6630 O   0  0  0  0  0  0  0  0  0  0  0  0
    0.0800   18.9770   -8.8310 O   0  0  0  0  0  0  0  0  0  0  0  0
    0.9550   19.6660   -7.0640 O   0  0  0  0  0  0  0  0  0  0  0  0
  1  2  1  0
  1  3  1  0
  3  4  2  0
  3  5  1  0
  5  6  1  0
  5  7  2  0
  4  8  1  0
  6  9  1  0
  7 10  1  0
  8 10  2  0
  9 11  1  0
 11 12  1  0
 12 13  1  0
 12 14  1  0
 12 15  1  0
 13 16  1  0
 16 17  1  0
 16 18  1  0
 16 19  1  0
M  CHG  2  15  -1  18  -1
M  END
>  <%Rank>  (1045) 
79.694656

>  <N_hits>  (1045) 
2

>  <submitter_name>  (1045) 
nan

>  <original SMILES>  (1045) 
nan

>  <∆G_unbound>  (1045) 
0.25208

>  <∆G_bound>  (1045) 
-7.758219

>  <regarded>  (1045) 
mArh-x0805_0_A_α,5CB5_0_R_β

>  <ref_pdb>  (1045) 
nan

>  <smiles>  (1045) 
COc1ccccc1CCO[PH]([O-])(O)O[PH]([O-])(O)O

>  <submitter_email>  (1045) 
nan

>  <disregarded>  (1045) 


>  <LE>  (1045) 
-0.421595

>  <submitter_institution>  (1045) 
nan

>  <ref_mols>  (1045) 
mArh-x0805_0_A,5CB5_0_R

>  <N_constrained_atoms>  (1045) 
17.0

>  <ref_url>  (1045) 
nan

>  <method>  (1045) 
nan

>  <comRMSD>  (1045) 
1.372329

>  <N_unconstrained_atoms>  (1045) 
2.0

>  <∆∆G>  (1045) 
-8.0103

>  <runtime>  (1045) 
34.512929

>  <generation_date>  (1045) 
nan

$$$$
5CB5_0_Q_α-3EW5_0_C_α
     RDKit          3D

 15 16  0  0  0  0  0  0  0  0999 V2000
   -1.6760   21.2450   -8.3170 C   0  0  2  0  0  0  0  0  0  0  0  0
   -0.9370   19.7330   -7.7830 P   0  0  0  0  0  0  0  0  0  0  0  0
    0.4020   20.3450   -7.3460 O   0  0  0  0  0  0  0  0  0  0  0  0
   -1.9750   22.0930   -7.1630 C   0  0  0  0  0  0  0  0  0  0  0  0
   -2.9370   21.4170   -9.0870 C   0  0  0  0  0  0  0  0  0  0  0  0
    0.0730   18.8700   -8.8470 O   0  0  0  0  0  0  0  0  0  0  0  0
   -1.3030   19.0430   -6.3820 O   0  0  0  0  0  0  0  0  0  0  0  0
   -3.2230   22.6940   -7.6580 C   0  0  2  0  0  0  0  0  0  0  0  0
   -4.0970   21.0910   -8.5320 O   0  0  0  0  0  0  0  0  0  0  0  0
   -3.5880   24.0770   -7.5410 C   0  0  0  0  0  0  0  0  0  0  0  0
   -4.3480   21.8010   -7.4660 C   0  0  2  0  0  0  0  0  0  0  0  0
   -4.2920   24.3710   -8.6830 O   0  0  0  0  0  0  0  0  0  0  0  0
   -5.5290   22.6670   -7.6910 C   0  0  2  0  0  0  0  0  0  0  0  0
   -6.6230   21.8900   -7.9540 O   0  0  0  0  0  0  0  0  0  0  0  0
   -5.2270   23.4420   -8.9370 C   0  0  0  0  0  0  0  0  0  0  0  0
  1  2  1  1
  2  3  1  0
  1  4  1  0
  1  5  1  0
  2  6  1  0
  2  7  1  0
  8  4  1  1
  5  9  1  0
  8 10  1  0
  8 11  1  0
 11  9  1  6
 10 12  1  0
 11 13  1  0
 13 14  1  6
 12 15  1  0
 13 15  1  0
M  CHG  1   6  -1
M  END
>  <%Rank>  (1046) 
79.770992

>  <N_hits>  (1046) 
2

>  <submitter_name>  (1046) 
nan

>  <original SMILES>  (1046) 
nan

>  <∆G_unbound>  (1046) 
0.481786

>  <∆G_bound>  (1046) 
-4.554836

>  <regarded>  (1046) 
5CB5_0_Q_α,3EW5_0_C_α

>  <ref_pdb>  (1046) 
nan

>  <smiles>  (1046) 
[O-][PH](O)(O)C1COC2C(O)COC[C@H]2C1

>  <submitter_email>  (1046) 
nan

>  <disregarded>  (1046) 


>  <LE>  (1046) 
-0.335775

>  <submitter_institution>  (1046) 
nan

>  <ref_mols>  (1046) 
5CB5_0_Q,3EW5_0_C

>  <N_constrained_atoms>  (1046) 
15.0

>  <ref_url>  (1046) 
nan

>  <method>  (1046) 
nan

>  <comRMSD>  (1046) 
1.342373

>  <N_unconstrained_atoms>  (1046) 
0.0

>  <∆∆G>  (1046) 
-5.036622

>  <runtime>  (1046) 
33.584909

>  <generation_date>  (1046) 
nan

$$$$
mArh-EU0716_0_A_α-mArh-3vfq_B_0_A_β
     RDKit          3D

 26 26  0  0  0  0  0  0  0  0999 V2000
  -10.2790   15.3140    0.5720 C   0  0  0  0  0  0  0  0  0  0  0  0
   -9.1560   14.2730    0.6730 C   0  0  0  0  0  0  0  0  0  0  0  0
   -7.9530   14.9570    1.3120 C   0  0  1  0  0  0  0  0  0  0  0  0
   -7.5970   14.5820    2.7530 C   0  0  2  0  0  0  0  0  0  0  0  0
   -6.5700   14.8730    0.5320 C   0  0  2  0  0  0  0  0  0  0  0  0
   -8.4010   15.2280    3.9040 C   0  0  0  0  0  0  0  0  0  0  0  0
   -6.3680   14.0760   -0.7220 C   0  0  0  0  0  0  0  0  0  0  0  0
   -6.2010   15.0110    2.8760 N   0  0  0  0  0  0  0  0  0  0  0  0
   -5.4580   14.8900    1.6110 C   0  0  1  0  0  0  0  0  0  0  0  0
   -7.7940   15.0810    5.1320 N   0  0  0  0  0  0  0  0  0  0  0  0
   -9.4720   15.8230    3.7620 O   0  0  0  0  0  0  0  0  0  0  0  0
   -7.3480   13.7560   -1.3800 O   0  0  0  0  0  0  0  0  0  0  0  0
   -4.3790   13.8090    1.6570 C   0  0  0  0  0  0  0  0  0  0  0  0
   -4.9540   13.7640   -1.1860 C   0  0  0  0  0  0  0  0  0  0  0  0
   -8.4840   15.3140    6.3700 C   0  0  0  0  0  0  0  0  0  0  0  0
   -4.8730   13.6710   -2.7080 C   0  0  0  0  0  0  0  0  0  0  0  0
   -4.0680   14.8080   -3.3290 C   0  0  0  0  0  0  0  0  0  0  0  0
   -3.9300   14.5710   -4.7220 O   0  0  0  0  0  0  0  0  0  0  0  0
   -3.9680   15.7090   -5.8430 P   0  0  2  0  0  0  0  0  0  0  0  0
   -2.9890   16.8860   -5.2570 O   0  0  0  0  0  0  0  0  0  0  0  0
   -5.3360   16.0590   -6.3160 O   0  0  0  0  0  0  0  0  0  0  0  0
   -3.3080   15.0420   -7.0930 O   0  0  0  0  0  0  0  0  0  0  0  0
   -2.1820   17.8660   -6.1920 P   0  0  0  0  0  0  0  0  0  0  0  0
   -2.9410   19.2480   -6.4770 O   0  0  0  0  0  0  0  0  0  0  0  0
   -0.7150   17.9710   -6.1830 O   0  0  0  0  0  0  0  0  0  0  0  0
   -2.7680   17.1030   -7.3630 O   0  0  0  0  0  0  0  0  0  0  0  0
  1  2  1  0
  3  2  1  6
  3  4  1  0
  3  5  1  0
  4  6  1  1
  5  7  1  1
  4  8  1  0
  5  9  1  0
  8  9  1  0
  6 10  1  0
  6 11  2  0
  7 12  2  0
  9 13  1  1
  7 14  1  0
 10 15  1  0
 14 16  1  0
 16 17  1  0
 17 18  1  0
 18 19  1  0
 19 20  1  0
 19 21  2  0
 19 22  1  6
 20 23  1  0
 23 24  1  0
 23 25  2  0
 23 26  1  0
M  END
>  <%Rank>  (1047) 
79.847328

>  <N_hits>  (1047) 
2

>  <submitter_name>  (1047) 
nan

>  <original SMILES>  (1047) 
nan

>  <∆G_unbound>  (1047) 
0.511448

>  <∆G_bound>  (1047) 
-0.583799

>  <regarded>  (1047) 
mArh-EU0716_0_A_α,mArh-3vfq_B_0_A_β

>  <ref_pdb>  (1047) 
nan

>  <smiles>  (1047) 
CCC1C(C(=O)NC)NC(C)C1C(=O)CCCOP(=O)(O)OP(=O)(O)O

>  <submitter_email>  (1047) 
nan

>  <disregarded>  (1047) 


>  <LE>  (1047) 
-0.042125

>  <submitter_institution>  (1047) 
nan

>  <ref_mols>  (1047) 
mArh-EU0716_0_A,mArh-3vfq_B_0_A

>  <N_constrained_atoms>  (1047) 
24.0

>  <ref_url>  (1047) 
nan

>  <method>  (1047) 
nan

>  <comRMSD>  (1047) 
1.331555

>  <N_unconstrained_atoms>  (1047) 
2.0

>  <∆∆G>  (1047) 
-1.095248

>  <runtime>  (1047) 
45.37635

>  <generation_date>  (1047) 
nan

$$$$
mArh-x0417_0_B_α-mArh-5cms_F_6_F_α
     RDKit          3D

 27 29  0  0  0  0  0  0  0  0999 V2000
   -2.5840   31.5330  -17.1290 N   0  0  0  0  0  0  0  0  0  0  0  0
   -1.2750   31.7890  -17.6880 C   0  0  0  0  0  0  0  0  0  0  0  0
   -2.5440   30.7770  -15.8660 C   0  0  2  0  0  0  0  0  0  0  0  0
   -2.4060   29.2660  -16.0310 C   0  0  0  0  0  0  0  0  0  0  0  0
   -3.9340   30.8860  -15.2410 C   0  0  0  0  0  0  0  0  0  0  0  0
   -4.6520   31.8530  -15.3860 O   0  0  0  0  0  0  0  0  0  0  0  0
   -3.3150   28.6580  -14.9780 C   0  0  0  0  0  0  0  0  0  0  0  0
   -4.1910   29.7150  -14.5290 N   0  0  0  0  0  0  0  0  0  0  0  0
   -5.2760   29.5430  -13.6070 C   0  0  0  0  0  0  0  0  0  0  0  0
   -6.5790   29.8930  -13.9880 C   0  0  0  0  0  0  0  0  0  0  0  0
   -5.0940   29.0330  -12.3110 C   0  0  0  0  0  0  0  0  0  0  0  0
   -3.8140   28.6920  -11.9880 O   0  0  0  0  0  0  0  0  0  0  0  0
   -7.6640   29.7490  -13.1170 C   0  0  0  0  0  0  0  0  0  0  0  0
   -6.1890   28.8980  -11.4390 C   0  0  0  0  0  0  0  0  0  0  0  0
   -3.0990   27.7720  -12.8500 C   0  0  0  0  0  0  0  0  0  0  0  0
   -7.4690   29.2540  -11.8420 C   0  0  0  0  0  0  0  0  0  0  0  0
   -3.9140   26.5000  -13.1510 C   0  0  0  0  0  0  0  0  0  0  0  0
   -4.3820   25.6900  -11.9300 C   0  0  0  0  0  0  0  0  0  0  0  0
   -3.2550   25.0570  -11.2910 O   0  0  0  0  0  0  0  0  0  0  0  0
   -3.6170   24.0780  -10.2450 C   0  0  1  0  0  0  0  0  0  0  0  0
   -4.0490   22.7840  -10.8810 C   0  0  2  0  0  0  0  0  0  0  0  0
   -2.4970   23.6410   -9.2330 C   0  0  1  0  0  0  0  0  0  0  0  0
   -2.7130   23.9650   -7.9140 O   0  0  0  0  0  0  0  0  0  0  0  0
   -5.3250   22.5180  -10.3620 O   0  0  0  0  0  0  0  0  0  0  0  0
   -2.3390   22.1450   -9.3880 C   0  0  2  0  0  0  0  0  0  0  0  0
   -3.1750   21.7240  -10.4800 O   0  0  0  0  0  0  0  0  0  0  0  0
   -2.7030   21.4160   -8.1280 C   0  0  0  0  0  0  0  0  0  0  0  0
  1  2  1  0
  3  1  1  6
  3  4  1  0
  3  5  1  0
  5  6  2  0
  4  7  1  0
  5  8  1  0
  7  8  1  0
  8  9  1  0
  9 10  2  0
  9 11  1  0
 11 12  1  0
 10 13  1  0
 11 14  2  0
 12 15  1  0
 13 16  2  0
 14 16  1  0
 15 17  1  0
 17 18  1  0
 18 19  1  0
 20 19  1  6
 20 21  1  0
 20 22  1  0
 22 23  1  1
 21 24  1  1
 22 25  1  0
 21 26  1  0
 25 26  1  0
 25 27  1  1
M  END
>  <%Rank>  (1048) 
79.923664

>  <N_hits>  (1048) 
2

>  <submitter_name>  (1048) 
nan

>  <original SMILES>  (1048) 
nan

>  <∆G_unbound>  (1048) 
0.407025

>  <∆G_bound>  (1048) 
-1.959044

>  <regarded>  (1048) 
mArh-x0417_0_B_α,mArh-5cms_F_6_F_α

>  <ref_pdb>  (1048) 
nan

>  <smiles>  (1048) 
CNC1CCN(c2ccccc2OCCCOC2C(O)OC(C)C2O)C1=O

>  <submitter_email>  (1048) 
nan

>  <disregarded>  (1048) 


>  <LE>  (1048) 
-0.087632

>  <submitter_institution>  (1048) 
nan

>  <ref_mols>  (1048) 
mArh-x0417_0_B,mArh-5cms_F_6_F

>  <N_constrained_atoms>  (1048) 
24.0

>  <ref_url>  (1048) 
nan

>  <method>  (1048) 
nan

>  <comRMSD>  (1048) 
1.353172

>  <N_unconstrained_atoms>  (1048) 
3.0

>  <∆∆G>  (1048) 
-2.366069

>  <runtime>  (1048) 
59.27055

>  <generation_date>  (1048) 
nan

$$$$
5CMS_0_H_δ-mArh-5cms_R_17_R_α
     RDKit          3D

 26 28  0  0  0  0  0  0  0  0999 V2000
   -3.7770   15.5190    1.7330 N   0  0  0  0  0  0  0  0  0  0  0  0
   -2.7430   14.8520    0.9580 C   0  0  1  0  0  0  0  0  0  0  0  0
   -2.6080   15.3920   -0.4760 C   0  0  1  0  0  0  0  0  0  0  0  0
   -1.5720   15.1580    1.7110 N   0  0  0  0  0  0  0  0  0  0  0  0
   -1.1300   15.3070   -0.8770 C   0  0  2  0  0  0  0  0  0  0  0  0
   -3.3590   14.6990   -1.5480 N   0  0  0  0  0  0  0  0  0  0  0  0
   -0.3960   14.4400    1.3100 C   0  0  0  0  0  0  0  0  0  0  0  0
   -1.1210   14.7130   -2.1990 N   0  0  0  0  0  0  0  0  0  0  0  0
   -2.4680   14.7900   -2.7130 C   0  0  2  0  0  0  0  0  0  0  0  0
   -0.2450   14.4350   -0.1240 N   0  0  0  0  0  0  0  0  0  0  0  0
   -2.6660   16.0830   -3.5150 C   0  0  0  0  0  0  0  0  0  0  0  0
   -1.9190   16.3430   -4.8510 C   0  0  0  0  0  0  0  0  0  0  0  0
   -1.2470   17.7450   -4.8630 C   0  0  0  0  0  0  0  0  0  0  0  0
   -1.1800   18.4780   -6.2200 C   0  0  0  0  0  0  0  0  0  0  0  0
   -2.3620   19.3690   -6.6870 C   0  0  0  0  0  0  0  0  0  0  0  0
   -2.6080   20.7430   -6.0070 C   0  0  0  0  0  0  0  0  0  0  0  0
   -3.9290   21.5440   -6.2600 C   0  0  0  0  0  0  0  0  0  0  0  0
   -3.9250   22.4960   -7.3720 O   0  0  0  0  0  0  0  0  0  0  0  0
   -3.8310   21.9120   -8.6580 C   0  0  2  0  0  0  0  0  0  0  0  0
   -2.7620   21.0240   -8.5400 O   0  0  0  0  0  0  0  0  0  0  0  0
   -3.2620   22.8460   -9.7080 C   0  0  1  0  0  0  0  0  0  0  0  0
   -3.9400   24.1050   -9.9450 O   0  0  0  0  0  0  0  0  0  0  0  0
   -1.7430   21.9100   -8.1070 C   0  0  2  0  0  0  0  0  0  0  0  0
   -1.8590   22.9930   -9.0950 C   0  0  2  0  0  0  0  0  0  0  0  0
   -0.4020   21.2100   -8.1950 C   0  0  0  0  0  0  0  0  0  0  0  0
   -1.4770   24.3120   -8.7730 O   0  0  0  0  0  0  0  0  0  0  0  0
  2  1  1  1
  2  3  1  0
  2  4  1  0
  3  5  1  0
  3  6  1  6
  4  7  1  0
  5  8  1  6
  6  9  1  0
  8  9  1  0
  5 10  1  0
  7 10  1  0
  9 11  1  1
 11 12  1  0
 12 13  1  0
 13 14  1  0
 14 15  1  0
 15 16  1  0
 16 17  1  0
 17 18  1  0
 19 18  1  1
 19 20  1  0
 19 21  1  0
 21 22  1  1
 20 23  1  0
 21 24  1  0
 23 24  1  0
 23 25  1  6
 24 26  1  1
M  END
>  <%Rank>  (1049) 
80.0

>  <N_hits>  (1049) 
2

>  <submitter_name>  (1049) 
nan

>  <original SMILES>  (1049) 
nan

>  <∆G_unbound>  (1049) 
0.247134

>  <∆G_bound>  (1049) 
-7.745951

>  <regarded>  (1049) 
5CMS_0_H_δ,mArh-5cms_R_17_R_α

>  <ref_pdb>  (1049) 
nan

>  <smiles>  (1049) 
CC1OC(OCCCCCCCC2NC3NCNC(N)C3N2)C(O)C1O

>  <submitter_email>  (1049) 
nan

>  <disregarded>  (1049) 


>  <LE>  (1049) 
-0.307426

>  <submitter_institution>  (1049) 
nan

>  <ref_mols>  (1049) 
5CMS_0_H,mArh-5cms_R_17_R

>  <N_constrained_atoms>  (1049) 
19.0

>  <ref_url>  (1049) 
nan

>  <method>  (1049) 
nan

>  <comRMSD>  (1049) 
1.254639

>  <N_unconstrained_atoms>  (1049) 
7.0

>  <∆∆G>  (1049) 
-7.993086

>  <runtime>  (1049) 
54.833391

>  <generation_date>  (1049) 
nan

$$$$
mArh-EU0238_0_A_α-5DUS_0_A_δ
     RDKit          3D

 14 15  0  0  0  0  0  0  0  0999 V2000
   -6.5740   14.3170    1.7980 C   0  0  0  0  0  0  0  0  0  0  0  0
   -7.7680   14.3450    0.9340 N   0  0  0  0  0  0  0  0  0  0  0  0
   -5.3460   14.7440    1.0020 C   0  0  0  0  0  0  0  0  0  0  0  0
   -5.3970   14.9930   -0.2040 O   0  0  0  0  0  0  0  0  0  0  0  0
   -4.1910   14.8090    1.7310 N   0  0  0  0  0  0  0  0  0  0  0  0
   -3.0850   14.2240    1.1300 C   0  0  1  0  0  0  0  0  0  0  0  0
   -2.9360   15.0180   -0.4270 S   0  0  0  0  0  0  0  0  0  0  0  0
   -1.8840   14.5890    1.8200 N   0  0  0  0  0  0  0  0  0  0  0  0
   -0.7680   14.2320    0.9310 C   0  0  0  0  0  0  0  0  0  0  0  0
   -1.3270   14.2680   -0.5100 C   0  0  1  0  0  0  0  0  0  0  0  0
   -1.6060   13.0860   -1.2580 N   0  0  0  0  0  0  0  0  0  0  0  0
   -0.5050   14.9050   -1.5420 C   0  0  0  0  0  0  0  0  0  0  0  0
   -1.6440   15.0600   -2.4740 N   0  0  0  0  0  0  0  0  0  0  0  0
   -2.2550   13.7330   -2.4040 C   0  0  0  0  0  0  0  0  0  0  0  0
  1  2  1  0
  1  3  1  0
  3  4  2  0
  3  5  1  0
  6  5  1  1
  6  7  1  0
  6  8  1  0
  8  9  1  0
 10  7  1  0
 10  9  1  1
 10 11  1  0
 10 12  1  0
 12 13  1  0
 11 14  1  0
 13 14  1  0
M  END
>  <%Rank>  (1050) 
80.076336

>  <N_hits>  (1050) 
2

>  <submitter_name>  (1050) 
nan

>  <original SMILES>  (1050) 
nan

>  <∆G_unbound>  (1050) 
0.226238

>  <∆G_bound>  (1050) 
-1.775709

>  <regarded>  (1050) 
mArh-EU0238_0_A_α,5DUS_0_A_δ

>  <ref_pdb>  (1050) 
nan

>  <smiles>  (1050) 
NCC(=O)NC1NCC2(CNCN2)S1

>  <submitter_email>  (1050) 
nan

>  <disregarded>  (1050) 


>  <LE>  (1050) 
-0.142996

>  <submitter_institution>  (1050) 
nan

>  <ref_mols>  (1050) 
mArh-EU0238_0_A,5DUS_0_A

>  <N_constrained_atoms>  (1050) 
14.0

>  <ref_url>  (1050) 
nan

>  <method>  (1050) 
nan

>  <comRMSD>  (1050) 
1.24505

>  <N_unconstrained_atoms>  (1050) 
0.0

>  <∆∆G>  (1050) 
-2.001947

>  <runtime>  (1050) 
25.794006

>  <generation_date>  (1050) 
nan

$$$$
5CMS_0_Q_δ-5CB5_0_F_α
     RDKit          3D

 27 29  0  0  0  0  0  0  0  0999 V2000
   -4.3110   15.4710    1.5610 N   0  0  0  0  0  0  0  0  0  0  0  0
   -3.0300   15.4570    0.8520 C   0  0  2  0  0  0  0  0  0  0  0  0
   -3.0340   14.8300   -0.5630 C   0  0  2  0  0  0  0  0  0  0  0  0
   -2.0520   14.8790    1.7550 N   0  0  0  0  0  0  0  0  0  0  0  0
   -1.5880   14.4800   -0.9520 C   0  0  1  0  0  0  0  0  0  0  0  0
   -3.4970   15.6500   -1.7200 N   0  0  0  0  0  0  0  0  0  0  0  0
   -0.7610   14.4880    1.2050 C   0  0  0  0  0  0  0  0  0  0  0  0
   -1.3750   15.1000   -2.2400 N   0  0  0  0  0  0  0  0  0  0  0  0
   -2.6790   15.1300   -2.8290 C   0  0  2  0  0  0  0  0  0  0  0  0
   -0.6030   15.0670   -0.0950 N   0  0  0  0  0  0  0  0  0  0  0  0
   -2.7600   15.8830   -4.2000 C   0  0  0  0  0  0  0  0  0  0  0  0
   -1.7600   17.0370   -4.5400 C   0  0  0  0  0  0  0  0  0  0  0  0
   -2.0600   17.8050   -5.8640 C   0  0  0  0  0  0  0  0  0  0  0  0
   -2.2020   19.3530   -5.7420 C   0  0  0  0  0  0  0  0  0  0  0  0
   -3.1950   19.9280   -6.7810 C   0  0  0  0  0  0  0  0  0  0  0  0
   -3.9970   21.0390   -6.3310 O   0  0  0  0  0  0  0  0  0  0  0  0
   -4.4920   21.8450   -7.4290 C   0  0  1  0  0  0  0  0  0  0  0  0
   -3.7210   23.1780   -7.6520 C   0  0  2  0  0  0  0  0  0  0  0  0
   -4.2490   21.0840   -8.6100 O   0  0  0  0  0  0  0  0  0  0  0  0
   -4.5900   24.2620   -7.6320 O   0  0  0  0  0  0  0  0  0  0  0  0
   -3.1250   21.6990   -9.2590 C   0  0  1  0  0  0  0  0  0  0  0  0
   -3.3450   23.1660   -9.0780 C   0  0  1  0  0  0  0  0  0  0  0  0
   -1.7990   21.2790   -8.6330 C   0  0  0  0  0  0  0  0  0  0  0  0
   -4.3280   23.7830   -9.9130 O   0  0  0  0  0  0  0  0  0  0  0  0
   -5.1090   24.3230   -6.3950 C   0  0  1  0  0  0  0  0  0  0  0  0
   -4.5260   25.5720   -5.7690 C   0  0  0  0  0  0  0  0  0  0  0  0
   -6.4540   24.3080   -6.7070 O   0  0  0  0  0  0  0  0  0  0  0  0
  2  1  1  1
  2  3  1  0
  2  4  1  0
  3  5  1  0
  3  6  1  6
  4  7  1  0
  5  8  1  6
  6  9  1  0
  8  9  1  0
  5 10  1  0
  7 10  1  0
  9 11  1  6
 11 12  1  0
 12 13  1  0
 13 14  1  0
 14 15  1  0
 15 16  1  0
 17 16  1  1
 17 18  1  0
 17 19  1  0
 18 20  1  6
 19 21  1  0
 18 22  1  0
 21 22  1  0
 21 23  1  1
 22 24  1  6
 20 25  1  0
 25 26  1  6
 25 27  1  0
M  END
>  <%Rank>  (1051) 
80.152672

>  <N_hits>  (1051) 
2

>  <submitter_name>  (1051) 
nan

>  <original SMILES>  (1051) 
nan

>  <∆G_unbound>  (1051) 
0.755836

>  <∆G_bound>  (1051) 
-7.045447

>  <regarded>  (1051) 
5CMS_0_Q_δ,5CB5_0_F_α

>  <ref_pdb>  (1051) 
nan

>  <smiles>  (1051) 
CC1OC(OCCCCCC2NC3NCNC(N)C3N2)C(O[C@@H](C)O)C1O

>  <submitter_email>  (1051) 
nan

>  <disregarded>  (1051) 


>  <LE>  (1051) 
-0.288936

>  <submitter_institution>  (1051) 
nan

>  <ref_mols>  (1051) 
5CMS_0_Q,5CB5_0_F

>  <N_constrained_atoms>  (1051) 
22.0

>  <ref_url>  (1051) 
nan

>  <method>  (1051) 
nan

>  <comRMSD>  (1051) 
1.373095

>  <N_unconstrained_atoms>  (1051) 
5.0

>  <∆∆G>  (1051) 
-7.801283

>  <runtime>  (1051) 
55.458928

>  <generation_date>  (1051) 
nan

$$$$
mArh-5cms_D_3_D_α-mArh-x0962_3_A_α
     RDKit          3D

 21 21  0  0  0  0  0  0  0  0999 V2000
   -1.2700   16.3890   -5.4270 O   0  0  0  0  0  0  0  0  0  0  0  0
   -1.8230   17.8650   -5.9110 P   0  0  0  0  0  0  0  0  0  0  0  0
   -3.0940   17.2300   -6.4010 O   0  0  0  0  0  0  0  0  0  0  0  0
   -2.3800   18.9100   -4.8200 O   0  0  0  0  0  0  0  0  0  0  0  0
   -1.7700   18.3590   -7.4170 O   0  0  0  0  0  0  0  0  0  0  0  0
   -0.8300   19.5540   -7.8020 P   0  0  0  0  0  0  0  0  0  0  0  0
   -1.1160   21.1000   -7.5840 O   0  0  0  0  0  0  0  0  0  0  0  0
    0.0260   19.3050   -6.5290 O   0  0  0  0  0  0  0  0  0  0  0  0
    0.4450   19.0160   -8.7040 O   0  0  0  0  0  0  0  0  0  0  0  0
    0.6560   18.0580   -6.2990 C   0  0  0  0  0  0  0  0  0  0  0  0
    0.6390   17.4670   -4.8580 C   0  0  0  0  0  0  0  0  0  0  0  0
    1.2720   16.0940   -4.9790 C   0  0  0  0  0  0  0  0  0  0  0  0
    0.5550   14.7800   -5.1500 C   0  0  0  0  0  0  0  0  0  0  0  0
    1.3780   13.4850   -5.2160 C   0  0  0  0  0  0  0  0  0  0  0  0
    1.0790   12.4440   -6.2380 C   0  0  0  0  0  0  0  0  0  0  0  0
    0.7080   11.4720   -6.9010 C   0  0  0  0  0  0  0  0  0  0  0  0
    0.0960   10.2750   -7.4140 C   0  0  0  0  0  0  0  0  0  0  0  0
    0.5850    9.3220   -8.2320 N   0  0  0  0  0  0  0  0  0  0  0  0
   -1.1860    9.8790   -7.1140 C   0  0  0  0  0  0  0  0  0  0  0  0
   -0.3830    8.3680   -8.4190 C   0  0  0  0  0  0  0  0  0  0  0  0
   -1.4800    8.7240   -7.7200 N   0  0  0  0  0  0  0  0  0  0  0  0
  1  2  1  0
  2  3  1  0
  2  4  1  0
  2  5  1  0
  5  6  1  0
  6  7  1  0
  6  8  1  0
  6  9  1  0
  8 10  1  0
 10 11  1  0
 11 12  1  0
 12 13  1  0
 13 14  1  0
 14 15  1  0
 15 16  3  0
 16 17  1  0
 17 18  1  0
 17 19  2  0
 18 20  1  0
 19 21  1  0
 20 21  2  0
M  CHG  1   3  -1
M  END
>  <%Rank>  (1052) 
80.229008

>  <N_hits>  (1052) 
2

>  <submitter_name>  (1052) 
nan

>  <original SMILES>  (1052) 
nan

>  <∆G_unbound>  (1052) 
0.067017

>  <∆G_bound>  (1052) 
-8.283018

>  <regarded>  (1052) 
mArh-5cms_D_3_D_α,mArh-x0962_3_A_α

>  <ref_pdb>  (1052) 
nan

>  <smiles>  (1052) 
[O-][PH](O)(O)O[PH](O)(O)OCCCCCC#Cc1cnc[nH]1

>  <submitter_email>  (1052) 
nan

>  <disregarded>  (1052) 


>  <LE>  (1052) 
-0.397621

>  <submitter_institution>  (1052) 
nan

>  <ref_mols>  (1052) 
mArh-5cms_D_3_D,mArh-x0962_3_A

>  <N_constrained_atoms>  (1052) 
16.0

>  <ref_url>  (1052) 
nan

>  <method>  (1052) 
nan

>  <comRMSD>  (1052) 
1.27212

>  <N_unconstrained_atoms>  (1052) 
5.0

>  <∆∆G>  (1052) 
-8.350034

>  <runtime>  (1052) 
37.326627

>  <generation_date>  (1052) 
nan

$$$$
mArh-5cms_D_3_D_γ-5MQX_0_A_β
     RDKit          3D

 19 20  0  0  0  0  0  0  0  0999 V2000
   -4.5340   15.3100    1.6770 N   0  0  0  0  0  0  0  0  0  0  0  0
   -3.2610   15.4490    1.0710 C   0  0  2  0  0  0  0  0  0  0  0  0
   -3.2100   15.2400   -0.3860 C   0  0  1  0  0  0  0  0  0  0  0  0
   -2.1830   14.6630    1.6370 N   0  0  0  0  0  0  0  0  0  0  0  0
   -2.0040   14.3850   -0.8390 C   0  0  1  0  0  0  0  0  0  0  0  0
   -4.1630   14.6010   -1.1410 N   0  0  0  0  0  0  0  0  0  0  0  0
   -0.9270   15.1220    1.1060 C   0  0  0  0  0  0  0  0  0  0  0  0
   -2.1790   14.5750   -2.2770 N   0  0  0  0  0  0  0  0  0  0  0  0
   -3.5060   15.2530   -2.2640 C   0  0  1  0  0  0  0  0  0  0  0  0
   -0.7660   14.8320   -0.3100 N   0  0  0  0  0  0  0  0  0  0  0  0
   -4.1520   15.0850   -3.4450 O   0  0  0  0  0  0  0  0  0  0  0  0
   -3.2530   15.4810   -4.7500 P   0  0  0  0  0  0  0  0  0  0  0  0
   -2.7390   16.9110   -4.3920 O   0  0  0  0  0  0  0  0  0  0  0  0
   -1.6750   15.0070   -4.8610 O   0  0  0  0  0  0  0  0  0  0  0  0
   -4.0140   16.0420   -6.1140 O   0  0  0  0  0  0  0  0  0  0  0  0
   -1.9610   17.9960   -5.3640 P   0  0  0  0  0  0  0  0  0  0  0  0
   -2.6260   18.4210   -6.8140 O   0  0  0  0  0  0  0  0  0  0  0  0
   -2.5470   19.2400   -4.7190 O   0  0  0  0  0  0  0  0  0  0  0  0
   -0.5200   18.6590   -4.9060 O   0  0  0  0  0  0  0  0  0  0  0  0
  2  1  1  1
  2  3  1  0
  2  4  1  0
  3  5  1  0
  3  6  1  1
  4  7  1  0
  5  8  1  6
  6  9  1  0
  8  9  1  0
  5 10  1  0
  7 10  1  0
  9 11  1  6
 11 12  1  0
 12 13  1  0
 12 14  1  0
 12 15  1  0
 13 16  1  0
 16 17  1  0
 16 18  1  0
 16 19  1  0
M  CHG  1  18  -1
M  END
>  <%Rank>  (1053) 
80.305344

>  <N_hits>  (1053) 
2

>  <submitter_name>  (1053) 
nan

>  <original SMILES>  (1053) 
nan

>  <∆G_unbound>  (1053) 
2.090926

>  <∆G_bound>  (1053) 
-1.121092

>  <regarded>  (1053) 
mArh-5cms_D_3_D_γ,5MQX_0_A_β

>  <ref_pdb>  (1053) 
nan

>  <smiles>  (1053) 
NC1NCNC2NC(O[PH](O)(O)O[PH]([O-])(O)O)NC12

>  <submitter_email>  (1053) 
nan

>  <disregarded>  (1053) 


>  <LE>  (1053) 
-0.169054

>  <submitter_institution>  (1053) 
nan

>  <ref_mols>  (1053) 
mArh-5cms_D_3_D,5MQX_0_A

>  <N_constrained_atoms>  (1053) 
19.0

>  <ref_url>  (1053) 
nan

>  <method>  (1053) 
nan

>  <comRMSD>  (1053) 
1.381485

>  <N_unconstrained_atoms>  (1053) 
0.0

>  <∆∆G>  (1053) 
-3.212018

>  <runtime>  (1053) 
25.177527

>  <generation_date>  (1053) 
nan

$$$$
mArh-5cms_H_7_H_β-5CB5_0_C_β
     RDKit          3D

 10  9  0  0  0  0  0  0  0  0999 V2000
    0.4500   18.9270   -8.8470 O   0  0  0  0  0  0  0  0  0  0  0  0
   -0.4080   19.4540   -7.7170 P   0  0  0  0  0  0  0  0  0  0  0  0
   -1.8480   18.8430   -7.2780 O   0  0  0  0  0  0  0  0  0  0  0  0
   -0.0570   18.2480   -7.0600 O   0  0  0  0  0  0  0  0  0  0  0  0
   -1.1420   19.7470   -9.0370 O   0  0  0  0  0  0  0  0  0  0  0  0
   -0.7700   20.9390   -7.1950 O   0  0  0  0  0  0  0  0  0  0  0  0
   -1.9200   17.8200   -5.9870 P   0  0  0  0  0  0  0  0  0  0  0  0
   -0.5140   16.9080   -5.8130 O   0  0  0  0  0  0  0  0  0  0  0  0
   -3.1230   16.8970   -6.2190 O   0  0  0  0  0  0  0  0  0  0  0  0
   -2.0410   18.7580   -4.6180 O   0  0  0  0  0  0  0  0  0  0  0  0
  1  2  1  0
  2  3  1  0
  2  4  2  0
  2  5  1  0
  2  6  1  0
  3  7  1  0
  7  8  1  0
  7  9  2  0
  7 10  1  0
M  CHG  1   6  -1
M  END
>  <%Rank>  (1054) 
80.381679

>  <N_hits>  (1054) 
2

>  <submitter_name>  (1054) 
nan

>  <original SMILES>  (1054) 
nan

>  <∆G_unbound>  (1054) 
0.439438

>  <∆G_bound>  (1054) 
-4.435988

>  <regarded>  (1054) 
mArh-5cms_H_7_H_β,5CB5_0_C_β

>  <ref_pdb>  (1054) 
nan

>  <smiles>  (1054) 
O=P(O)(O)O[PH](=O)([O-])(O)O

>  <submitter_email>  (1054) 
nan

>  <disregarded>  (1054) 


>  <LE>  (1054) 
-0.487543

>  <submitter_institution>  (1054) 
nan

>  <ref_mols>  (1054) 
mArh-5cms_H_7_H,5CB5_0_C

>  <N_constrained_atoms>  (1054) 
10.0

>  <ref_url>  (1054) 
nan

>  <method>  (1054) 
nan

>  <comRMSD>  (1054) 
1.310072

>  <N_unconstrained_atoms>  (1054) 
0.0

>  <∆∆G>  (1054) 
-4.875426

>  <runtime>  (1054) 
20.550705

>  <generation_date>  (1054) 
nan

$$$$
5CMS_0_I_α-5L9K_0_B_β
     RDKit          3D

 17 17  0  0  0  0  0  0  0  0999 V2000
   -1.6870   21.4340   -7.6220 C   0  0  0  0  0  0  0  0  0  0  0  0
   -0.8860   19.8990   -7.4990 P   0  0  0  0  0  0  0  0  0  0  0  0
   -1.3380   18.6800   -8.4480 O   0  0  0  0  0  0  0  0  0  0  0  0
   -2.6280   21.7690   -8.7670 C   0  0  1  0  0  0  0  0  0  0  0  0
   -1.8140   19.2700   -6.4750 O   0  0  0  0  0  0  0  0  0  0  0  0
    0.0640   20.0510   -8.6840 O   0  0  0  0  0  0  0  0  0  0  0  0
   -3.9990   21.5720   -8.5790 O   0  0  0  0  0  0  0  0  0  0  0  0
   -2.6610   23.1970   -8.9970 C   0  0  1  0  0  0  0  0  0  0  0  0
   -1.3510   23.5800   -9.1870 O   0  0  0  0  0  0  0  0  0  0  0  0
   -1.8100   17.9460   -5.7430 P   0  0  0  0  0  0  0  0  0  0  0  0
   -4.6800   22.5380   -9.3330 C   0  0  2  0  0  0  0  0  0  0  0  0
   -3.6690   23.1720  -10.1510 C   0  0  2  0  0  0  0  0  0  0  0  0
   -5.3560   23.4780   -8.5670 O   0  0  0  0  0  0  0  0  0  0  0  0
   -3.5280   22.3360  -11.2390 O   0  0  0  0  0  0  0  0  0  0  0  0
   -0.3030   17.4970   -6.1700 O   0  0  0  0  0  0  0  0  0  0  0  0
   -2.0700   18.8090   -4.4170 O   0  0  0  0  0  0  0  0  0  0  0  0
   -3.0270   17.3860   -6.6930 O   0  0  0  0  0  0  0  0  0  0  0  0
  1  2  1  0
  2  3  1  0
  4  1  1  1
  2  5  1  0
  2  6  1  0
  4  7  1  0
  4  8  1  0
  8  9  1  6
  5 10  1  0
  7 11  1  0
  8 12  1  0
 11 12  1  0
 11 13  1  1
 12 14  1  6
 10 15  1  0
 10 16  1  0
 10 17  1  0
M  CHG  2   6  -1  16  -1
M  END
>  <%Rank>  (1055) 
80.458015

>  <N_hits>  (1055) 
2

>  <submitter_name>  (1055) 
nan

>  <original SMILES>  (1055) 
nan

>  <∆G_unbound>  (1055) 
2.322502

>  <∆G_bound>  (1055) 
-3.84826

>  <regarded>  (1055) 
5CMS_0_I_α,5L9K_0_B_β

>  <ref_pdb>  (1055) 
nan

>  <smiles>  (1055) 
[O-][PH](O)(O)O[PH]([O-])(O)CC1OC(O)C(O)C1O

>  <submitter_email>  (1055) 
nan

>  <disregarded>  (1055) 


>  <LE>  (1055) 
-0.362986

>  <submitter_institution>  (1055) 
nan

>  <ref_mols>  (1055) 
5CMS_0_I,5L9K_0_B

>  <N_constrained_atoms>  (1055) 
17.0

>  <ref_url>  (1055) 
nan

>  <method>  (1055) 
nan

>  <comRMSD>  (1055) 
1.439175

>  <N_unconstrained_atoms>  (1055) 
0.0

>  <∆∆G>  (1055) 
-6.170762

>  <runtime>  (1055) 
31.608801

>  <generation_date>  (1055) 
nan

$$$$
mArh-5cb5_O_0_O_α-mArh-x0918_1_B_α
     RDKit          3D

 18 19  0  0  0  0  0  0  0  0999 V2000
   -3.2110   21.4020   -7.0930 C   0  0  0  0  0  0  0  0  0  0  0  0
   -3.5420   21.9400   -8.4660 C   0  0  1  0  0  0  0  0  0  0  0  0
   -4.7680   21.3060   -8.7670 O   0  0  0  0  0  0  0  0  0  0  0  0
   -3.8820   23.4200   -8.4540 C   0  0  1  0  0  0  0  0  0  0  0  0
   -4.1530   23.9810   -9.7320 O   0  0  0  0  0  0  0  0  0  0  0  0
   -5.6940   21.9540   -7.9130 C   0  0  2  0  0  0  0  0  0  0  0  0
   -5.1510   23.3710   -7.6180 C   0  0  2  0  0  0  0  0  0  0  0  0
   -5.7850   21.2320   -6.6790 O   0  0  0  0  0  0  0  0  0  0  0  0
   -6.0790   24.3440   -8.0960 O   0  0  0  0  0  0  0  0  0  0  0  0
   -3.4450   23.3240  -10.7960 C   0  0  0  0  0  0  0  0  0  0  0  0
   -2.0050   23.8420  -10.8690 C   0  0  0  0  0  0  0  0  0  0  0  0
   -1.8480   25.1440  -11.5320 N   0  0  0  0  0  0  0  0  0  0  0  0
   -2.6850   25.5770  -12.5570 C   0  0  0  0  0  0  0  0  0  0  0  0
   -4.0640   25.3620  -12.4650 C   0  0  0  0  0  0  0  0  0  0  0  0
   -2.2180   26.2220  -13.7010 C   0  0  0  0  0  0  0  0  0  0  0  0
   -4.8930   25.7810  -13.4930 C   0  0  0  0  0  0  0  0  0  0  0  0
   -3.1220   26.6060  -14.6810 C   0  0  0  0  0  0  0  0  0  0  0  0
   -4.4520   26.3990  -14.6060 N   0  0  0  0  0  0  0  0  0  0  0  0
  2  1  1  1
  2  3  1  0
  2  4  1  0
  4  5  1  6
  3  6  1  0
  4  7  1  0
  6  7  1  0
  6  8  1  1
  7  9  1  6
  5 10  1  0
 10 11  1  0
 11 12  1  0
 12 13  1  0
 13 14  2  0
 13 15  1  0
 14 16  1  0
 15 17  2  0
 16 18  2  0
 17 18  1  0
M  END
>  <%Rank>  (1056) 
80.534351

>  <N_hits>  (1056) 
2

>  <submitter_name>  (1056) 
nan

>  <original SMILES>  (1056) 
nan

>  <∆G_unbound>  (1056) 
0.246448

>  <∆G_bound>  (1056) 
-5.859245

>  <regarded>  (1056) 
mArh-5cb5_O_0_O_α,mArh-x0918_1_B_α

>  <ref_pdb>  (1056) 
nan

>  <smiles>  (1056) 
CC1OC(O)C(O)C1OCCNc1ccncc1

>  <submitter_email>  (1056) 
nan

>  <disregarded>  (1056) 


>  <LE>  (1056) 
-0.339205

>  <submitter_institution>  (1056) 
nan

>  <ref_mols>  (1056) 
mArh-5cb5_O_0_O,mArh-x0918_1_B

>  <N_constrained_atoms>  (1056) 
16.0

>  <ref_url>  (1056) 
nan

>  <method>  (1056) 
nan

>  <comRMSD>  (1056) 
1.342571

>  <N_unconstrained_atoms>  (1056) 
2.0

>  <∆∆G>  (1056) 
-6.105693

>  <runtime>  (1056) 
30.209624

>  <generation_date>  (1056) 
nan

$$$$
mArh-EU0906_0_A_β-mArh-5cb5_R_0_R_γ
     RDKit          3D

 23 24  0  0  0  0  0  0  0  0999 V2000
    1.8850    9.6460  -11.7200 C   0  0  0  0  0  0  0  0  0  0  0  0
    2.0370    8.7790  -10.7860 N   0  0  0  0  0  0  0  0  0  0  0  0
    0.7660    8.6680  -10.0490 C   0  0  0  0  0  0  0  0  0  0  0  0
    2.8750   10.0110  -12.7480 C   0  0  0  0  0  0  0  0  0  0  0  0
    3.9760    9.2110  -13.0740 C   0  0  0  0  0  0  0  0  0  0  0  0
    2.6530   11.2170  -13.4170 C   0  0  0  0  0  0  0  0  0  0  0  0
    0.8750    9.1950   -8.6270 C   0  0  0  0  0  0  0  0  0  0  0  0
    4.8490    9.6220  -14.0850 C   0  0  0  0  0  0  0  0  0  0  0  0
    3.5230   11.6190  -14.4230 C   0  0  0  0  0  0  0  0  0  0  0  0
    0.5090   10.6750   -8.4110 C   0  0  0  0  0  0  0  0  0  0  0  0
    4.6090   10.8210  -14.7540 C   0  0  0  0  0  0  0  0  0  0  0  0
    5.4260   11.2230  -15.7320 F   0  0  0  0  0  0  0  0  0  0  0  0
    0.8970   11.0890   -6.9990 C   0  0  0  0  0  0  0  0  0  0  0  0
    0.4720   12.3760   -6.3160 C   0  0  0  0  0  0  0  0  0  0  0  0
    1.4800   12.7090   -5.2140 C   0  0  0  0  0  0  0  0  0  0  0  0
    1.3180   14.0490   -4.7680 O   0  0  0  0  0  0  0  0  0  0  0  0
    0.0260   14.6090   -5.0140 C   0  0  2  0  0  0  0  0  0  0  0  0
   -0.1020   16.0510   -4.5340 C   0  0  2  0  0  0  0  0  0  0  0  0
   -0.9530   14.0110   -4.0160 C   0  0  1  0  0  0  0  0  0  0  0  0
   -0.8950   12.5940   -3.9490 O   0  0  0  0  0  0  0  0  0  0  0  0
    0.8090   17.1000   -5.1280 C   0  0  0  0  0  0  0  0  0  0  0  0
   -0.5090   14.6980   -2.7270 C   0  0  0  0  0  0  0  0  0  0  0  0
    0.1030   15.9440   -3.1130 O   0  0  0  0  0  0  0  0  0  0  0  0
  1  2  2  3
  2  3  1  0
  1  4  1  0
  4  5  2  0
  4  6  1  0
  3  7  1  0
  5  8  1  0
  6  9  2  0
  7 10  1  0
  8 11  2  0
  9 11  1  0
 11 12  1  0
 10 13  1  0
 13 14  1  0
 14 15  1  0
 15 16  1  0
 17 16  1  1
 17 18  1  0
 17 19  1  0
 19 20  1  1
 18 21  1  6
 19 22  1  0
 18 23  1  0
 22 23  1  0
M  END
>  <%Rank>  (1057) 
80.610687

>  <N_hits>  (1057) 
2

>  <submitter_name>  (1057) 
nan

>  <original SMILES>  (1057) 
nan

>  <∆G_unbound>  (1057) 
0.185099

>  <∆G_bound>  (1057) 
-6.90575

>  <regarded>  (1057) 
mArh-EU0906_0_A_β,mArh-5cb5_R_0_R_γ

>  <ref_pdb>  (1057) 
nan

>  <smiles>  (1057) 
CC1OCC(O)C1OCCCCCCN=Cc1ccc(F)cc1

>  <submitter_email>  (1057) 
nan

>  <disregarded>  (1057) 


>  <LE>  (1057) 
-0.308298

>  <submitter_institution>  (1057) 
nan

>  <ref_mols>  (1057) 
mArh-EU0906_0_A,mArh-5cb5_R_0_R

>  <N_constrained_atoms>  (1057) 
17.0

>  <ref_url>  (1057) 
nan

>  <method>  (1057) 
nan

>  <comRMSD>  (1057) 
1.242886

>  <N_unconstrained_atoms>  (1057) 
6.0

>  <∆∆G>  (1057) 
-7.090849

>  <runtime>  (1057) 
67.114236

>  <generation_date>  (1057) 
nan

$$$$
5CMS_0_F_α-mArh-5cb5_M_1_M_β
     RDKit          3D

 17 17  0  0  0  0  0  0  0  0999 V2000
   -1.8600   20.9940   -7.9340 C   0  0  0  0  0  0  0  0  0  0  0  0
   -0.4280   19.9010   -7.8680 P   0  0  1  0  0  0  0  0  0  0  0  0
   -0.4680   19.2660   -6.4350 O   0  0  0  0  0  0  0  0  0  0  0  0
   -1.9150   21.9710   -9.0800 C   0  0  1  0  0  0  0  0  0  0  0  0
   -0.2060   18.7930   -8.8520 O   0  0  0  0  0  0  0  0  0  0  0  0
    0.8240   20.9070   -7.7740 O   0  0  0  0  0  0  0  0  0  0  0  0
   -2.8370   21.5540  -10.1190 O   0  0  0  0  0  0  0  0  0  0  0  0
   -2.2880   23.3970   -8.7030 C   0  0  1  0  0  0  0  0  0  0  0  0
   -1.1860   24.2720   -8.8400 O   0  0  0  0  0  0  0  0  0  0  0  0
   -1.7330   18.4360   -5.9920 P   0  0  0  0  0  0  0  0  0  0  0  0
   -3.9560   22.4400  -10.1350 C   0  0  1  0  0  0  0  0  0  0  0  0
   -3.5100   23.7500   -9.5790 C   0  0  2  0  0  0  0  0  0  0  0  0
   -4.4690   22.6680  -11.4230 O   0  0  0  0  0  0  0  0  0  0  0  0
   -3.3240   24.5810  -10.7460 O   0  0  0  0  0  0  0  0  0  0  0  0
   -1.1940   17.1630   -5.2170 O   0  0  0  0  0  0  0  0  0  0  0  0
   -2.7300   18.0920   -7.0220 O   0  0  0  0  0  0  0  0  0  0  0  0
   -2.3150   19.3620   -4.8350 O   0  0  0  0  0  0  0  0  0  0  0  0
  1  2  1  0
  2  3  1  0
  4  1  1  1
  2  5  2  0
  2  6  1  1
  4  7  1  0
  4  8  1  0
  8  9  1  6
  3 10  1  0
  7 11  1  0
  8 12  1  0
 11 12  1  0
 11 13  1  6
 12 14  1  6
 10 15  1  0
 10 16  2  0
 10 17  1  0
M  END
>  <%Rank>  (1058) 
80.687023

>  <N_hits>  (1058) 
2

>  <submitter_name>  (1058) 
nan

>  <original SMILES>  (1058) 
nan

>  <∆G_unbound>  (1058) 
1.703844

>  <∆G_bound>  (1058) 
-6.739884

>  <regarded>  (1058) 
5CMS_0_F_α,mArh-5cb5_M_1_M_β

>  <ref_pdb>  (1058) 
nan

>  <smiles>  (1058) 
O=P(O)(O)OP(=O)(O)CC1OC(O)C(O)C1O

>  <submitter_email>  (1058) 
nan

>  <disregarded>  (1058) 


>  <LE>  (1058) 
-0.49669

>  <submitter_institution>  (1058) 
nan

>  <ref_mols>  (1058) 
5CMS_0_F,mArh-5cb5_M_1_M

>  <N_constrained_atoms>  (1058) 
17.0

>  <ref_url>  (1058) 
nan

>  <method>  (1058) 
nan

>  <comRMSD>  (1058) 
1.51536

>  <N_unconstrained_atoms>  (1058) 
0.0

>  <∆∆G>  (1058) 
-8.443728

>  <runtime>  (1058) 
34.311931

>  <generation_date>  (1058) 
nan

$$$$
mArh-EU0144_0_A_α-5CMS_0_Q_α
     RDKit          3D

 25 26  0  0  0  0  0  0  0  0999 V2000
   -8.3580   14.4680    0.6680 C   0  0  0  0  0  0  0  0  0  0  0  0
   -6.9370   14.6570    0.3200 C   0  0  0  0  0  0  0  0  0  0  0  0
   -6.3440   14.6160   -0.8580 N   0  0  0  0  0  0  0  0  0  0  0  0
   -6.1060   14.9210    1.3660 O   0  0  0  0  0  0  0  0  0  0  0  0
   -4.8770   15.0590    0.8000 C   0  0  0  0  0  0  0  0  0  0  0  0
   -5.0260   14.8740   -0.5560 C   0  0  0  0  0  0  0  0  0  0  0  0
   -3.8790   15.3210    1.6530 N   0  0  0  0  0  0  0  0  0  0  0  0
   -4.0340   14.9190   -1.5770 C   0  0  0  0  0  0  0  0  0  0  0  0
   -3.2010   14.9650   -2.4520 C   0  0  0  0  0  0  0  0  0  0  0  0
   -2.1700   15.0370   -3.5090 C   0  0  0  0  0  0  0  0  0  0  0  0
   -1.3370   16.3200   -3.4190 C   0  0  0  0  0  0  0  0  0  0  0  0
   -0.0770   16.4140   -4.2920 C   0  0  0  0  0  0  0  0  0  0  0  0
    0.5150   17.8210   -4.4650 C   0  0  0  0  0  0  0  0  0  0  0  0
    0.7680   18.2350   -5.9170 C   0  0  0  0  0  0  0  0  0  0  0  0
   -0.4720   18.6670   -6.7140 C   0  0  0  0  0  0  0  0  0  0  0  0
   -0.3070   19.8400   -7.6800 C   0  0  0  0  0  0  0  0  0  0  0  0
   -1.1640   21.0550   -7.2990 C   0  0  0  0  0  0  0  0  0  0  0  0
   -1.9590   21.6050   -8.4650 C   0  0  1  0  0  0  0  0  0  0  0  0
   -3.3790   21.2940   -8.4420 O   0  0  0  0  0  0  0  0  0  0  0  0
   -1.9440   23.1060   -8.4740 C   0  0  1  0  0  0  0  0  0  0  0  0
   -0.6170   23.5300   -8.6110 O   0  0  0  0  0  0  0  0  0  0  0  0
   -4.0300   22.4390   -9.0010 C   0  0  1  0  0  0  0  0  0  0  0  0
   -2.9000   23.0860   -9.6420 C   0  0  1  0  0  0  0  0  0  0  0  0
   -4.9440   22.1520  -10.0350 O   0  0  0  0  0  0  0  0  0  0  0  0
   -3.2310   24.2560  -10.3680 O   0  0  0  0  0  0  0  0  0  0  0  0
  1  2  1  0
  2  3  2  0
  2  4  1  0
  4  5  1  0
  3  6  1  0
  5  6  2  0
  5  7  1  0
  6  8  1  0
  8  9  3  0
  9 10  1  0
 10 11  1  0
 11 12  1  0
 12 13  1  0
 13 14  1  0
 14 15  1  0
 15 16  1  0
 16 17  1  0
 18 17  1  1
 18 19  1  0
 18 20  1  0
 20 21  1  6
 19 22  1  0
 20 23  1  0
 22 23  1  0
 22 24  1  6
 23 25  1  1
M  END
>  <%Rank>  (1059) 
80.763359

>  <N_hits>  (1059) 
2

>  <submitter_name>  (1059) 
nan

>  <original SMILES>  (1059) 
nan

>  <∆G_unbound>  (1059) 
-0.144278

>  <∆G_bound>  (1059) 
-8.964785

>  <regarded>  (1059) 
mArh-EU0144_0_A_α,5CMS_0_Q_α

>  <ref_pdb>  (1059) 
nan

>  <smiles>  (1059) 
Cc1nc(C#CCCCCCCCCC2OC(O)C(O)C2O)c(N)o1

>  <submitter_email>  (1059) 
nan

>  <disregarded>  (1059) 


>  <LE>  (1059) 
-0.35282

>  <submitter_institution>  (1059) 
nan

>  <ref_mols>  (1059) 
mArh-EU0144_0_A,5CMS_0_Q

>  <N_constrained_atoms>  (1059) 
18.0

>  <ref_url>  (1059) 
nan

>  <method>  (1059) 
nan

>  <comRMSD>  (1059) 
1.274168

>  <N_unconstrained_atoms>  (1059) 
7.0

>  <∆∆G>  (1059) 
-8.820506

>  <runtime>  (1059) 
66.052695

>  <generation_date>  (1059) 
nan

$$$$
6WOJ_0_C_β-mArh-5cms_J_9_J_α
     RDKit          3D

 19 19  0  0  0  0  0  0  0  0999 V2000
   -1.6790   20.4510   -7.9630 O   0  0  0  0  0  0  0  0  0  0  0  0
   -0.5430   19.3840   -7.5330 P   0  0  0  0  0  0  0  0  0  0  0  0
   -0.3440   18.9180   -6.0310 O   0  0  0  0  0  0  0  0  0  0  0  0
    0.5130   20.4460   -7.3660 O   0  0  0  0  0  0  0  0  0  0  0  0
    0.3160   18.6520   -8.7420 O   0  0  0  0  0  0  0  0  0  0  0  0
   -1.4000   18.0810   -5.3520 P   0  0  0  0  0  0  0  0  0  0  0  0
    0.5350   21.3770   -8.3560 C   0  0  0  0  0  0  0  0  0  0  0  0
   -0.2820   16.8420   -5.2480 O   0  0  0  0  0  0  0  0  0  0  0  0
   -2.3830   17.2270   -4.5710 O   0  0  0  0  0  0  0  0  0  0  0  0
   -2.4070   18.1070   -6.6650 O   0  0  0  0  0  0  0  0  0  0  0  0
   -0.2700   22.5530   -8.0020 C   0  0  0  0  0  0  0  0  0  0  0  0
   -1.6820   22.4690   -8.5530 C   0  0  2  0  0  0  0  0  0  0  0  0
   -1.9590   21.6940   -9.6240 O   0  0  0  0  0  0  0  0  0  0  0  0
   -2.2850   23.7760   -8.8400 C   0  0  2  0  0  0  0  0  0  0  0  0
   -2.6250   24.4390   -7.7410 O   0  0  0  0  0  0  0  0  0  0  0  0
   -3.2580   22.0010   -9.9610 C   0  0  2  0  0  0  0  0  0  0  0  0
   -3.5840   23.3940   -9.5280 C   0  0  2  0  0  0  0  0  0  0  0  0
   -4.0850   21.2910   -9.0940 O   0  0  0  0  0  0  0  0  0  0  0  0
   -4.0020   24.2650  -10.5080 O   0  0  0  0  0  0  0  0  0  0  0  0
  1  2  1  0
  2  3  1  0
  2  4  1  0
  2  5  1  0
  3  6  1  0
  4  7  1  0
  6  8  1  0
  6  9  1  0
  6 10  1  0
  7 11  1  0
 12 11  1  6
 12 13  1  0
 12 14  1  0
 14 15  1  1
 13 16  1  0
 14 17  1  0
 16 17  1  0
 16 18  1  1
 17 19  1  6
M  CHG  1   9  -1
M  END
>  <%Rank>  (1060) 
80.839695

>  <N_hits>  (1060) 
2

>  <submitter_name>  (1060) 
nan

>  <original SMILES>  (1060) 
nan

>  <∆G_unbound>  (1060) 
0.726579

>  <∆G_bound>  (1060) 
-3.122445

>  <regarded>  (1060) 
6WOJ_0_C_β,mArh-5cms_J_9_J_α

>  <ref_pdb>  (1060) 
nan

>  <smiles>  (1060) 
[O-][PH](O)(O)O[PH](O)(O)OCCC1OC(O)C(O)C1O

>  <submitter_email>  (1060) 
nan

>  <disregarded>  (1060) 


>  <LE>  (1060) 
-0.20258

>  <submitter_institution>  (1060) 
nan

>  <ref_mols>  (1060) 
6WOJ_0_C,mArh-5cms_J_9_J

>  <N_constrained_atoms>  (1060) 
18.0

>  <ref_url>  (1060) 
nan

>  <method>  (1060) 
nan

>  <comRMSD>  (1060) 
1.381041

>  <N_unconstrained_atoms>  (1060) 
1.0

>  <∆∆G>  (1060) 
-3.849024

>  <runtime>  (1060) 
45.191264

>  <generation_date>  (1060) 
nan

$$$$
mArh-x0159_0_B_α-5CB5_0_A_γ
     RDKit          3D

 22 23  0  0  0  0  0  0  0  0999 V2000
    2.4020    7.7830   -9.6020 C   0  0  0  0  0  0  0  0  0  0  0  0
    1.0200    7.1790   -9.3640 C   0  0  2  0  0  0  0  0  0  0  0  0
    0.0460    8.1680   -8.6760 C   0  0  0  0  0  0  0  0  0  0  0  0
    1.1070    5.8730   -8.6020 C   0  0  0  0  0  0  0  0  0  0  0  0
    0.6890    9.1890   -7.7300 C   0  0  0  0  0  0  0  0  0  0  0  0
    0.9030    5.7950   -7.2200 C   0  0  0  0  0  0  0  0  0  0  0  0
    1.3930    4.6990   -9.2980 C   0  0  0  0  0  0  0  0  0  0  0  0
    0.4640   10.6760   -8.0510 C   0  0  0  0  0  0  0  0  0  0  0  0
    0.9850    4.5710   -6.5620 C   0  0  0  0  0  0  0  0  0  0  0  0
    1.4650    3.4860   -8.6370 C   0  0  0  0  0  0  0  0  0  0  0  0
    0.5650   11.5790   -6.8150 C   0  0  0  0  0  0  0  0  0  0  0  0
    1.2650    3.4220   -7.2780 C   0  0  0  0  0  0  0  0  0  0  0  0
   -0.7600   12.1810   -6.3770 C   0  0  0  0  0  0  0  0  0  0  0  0
   -1.0180   11.9720   -4.8900 C   0  0  0  0  0  0  0  0  0  0  0  0
   -1.7570   13.0200   -4.2810 O   0  0  0  0  0  0  0  0  0  0  0  0
   -1.1850   14.3290   -4.3130 C   0  0  1  0  0  0  0  0  0  0  0  0
   -0.7720   14.7750   -2.9230 C   0  0  0  0  0  0  0  0  0  0  0  0
    0.1620   14.5140   -5.0220 C   0  0  2  0  0  0  0  0  0  0  0  0
    1.1030   13.5110   -4.6280 O   0  0  0  0  0  0  0  0  0  0  0  0
    0.0620   15.9310   -3.1200 O   0  0  0  0  0  0  0  0  0  0  0  0
    0.6100   15.8660   -4.4570 C   0  0  2  0  0  0  0  0  0  0  0  0
    0.1000   17.0670   -5.2500 C   0  0  0  0  0  0  0  0  0  0  0  0
  2  1  1  1
  2  3  1  0
  2  4  1  0
  3  5  1  0
  4  6  2  0
  4  7  1  0
  5  8  1  0
  6  9  1  0
  7 10  2  0
  8 11  1  0
  9 12  2  0
 10 12  1  0
 11 13  1  0
 13 14  1  0
 14 15  1  0
 16 15  1  1
 16 17  1  0
 16 18  1  0
 18 19  1  1
 17 20  1  0
 18 21  1  0
 20 21  1  0
 21 22  1  6
M  END
>  <%Rank>  (1061) 
80.916031

>  <N_hits>  (1061) 
2

>  <submitter_name>  (1061) 
nan

>  <original SMILES>  (1061) 
nan

>  <∆G_unbound>  (1061) 
0.328192

>  <∆G_bound>  (1061) 
-6.654946

>  <regarded>  (1061) 
mArh-x0159_0_B_α,5CB5_0_A_γ

>  <ref_pdb>  (1061) 
nan

>  <smiles>  (1061) 
CC(CCCCCCOC1COC(C)C1O)c1ccccc1

>  <submitter_email>  (1061) 
nan

>  <disregarded>  (1061) 


>  <LE>  (1061) 
-0.317415

>  <submitter_institution>  (1061) 
nan

>  <ref_mols>  (1061) 
mArh-x0159_0_B,5CB5_0_A

>  <N_constrained_atoms>  (1061) 
16.0

>  <ref_url>  (1061) 
nan

>  <method>  (1061) 
nan

>  <comRMSD>  (1061) 
1.2431

>  <N_unconstrained_atoms>  (1061) 
6.0

>  <∆∆G>  (1061) 
-6.983137

>  <runtime>  (1061) 
41.782598

>  <generation_date>  (1061) 
nan

$$$$
mArh-mac-242_0_A_α-mArh-x0742_0_A_α
     RDKit          3D

 21 24  0  0  0  0  0  0  0  0999 V2000
   -4.2660   15.2650    1.8530 N   0  0  0  0  0  0  0  0  0  0  0  0
   -3.8200   13.9880    1.3480 C   0  0  2  0  0  0  0  0  0  0  0  0
   -2.4300   14.0140    1.9270 N   0  0  0  0  0  0  0  0  0  0  0  0
   -4.0740   13.7410   -0.1620 C   0  0  2  0  0  0  0  0  0  0  0  0
   -4.9100   13.1450    2.0490 C   0  0  0  0  0  0  0  0  0  0  0  0
   -4.5570   12.2850   -0.6750 C   0  0  0  0  0  0  0  0  0  0  0  0
   -3.0960   14.5090   -1.0980 C   0  0  1  0  0  0  0  0  0  0  0  0
   -1.2710   13.9700    1.3490 C   0  0  0  0  0  0  0  0  0  0  0  0
   -5.3520   14.5060   -0.5150 C   0  0  2  0  0  0  0  0  0  0  0  0
   -6.1800   12.8970    1.2380 C   0  0  0  0  0  0  0  0  0  0  0  0
   -3.9340   11.6270   -1.5070 O   0  0  0  0  0  0  0  0  0  0  0  0
   -5.8560   11.6390   -0.2070 C   0  0  0  0  0  0  0  0  0  0  0  0
   -1.6100   14.0920   -1.1310 C   0  0  0  0  0  0  0  0  0  0  0  0
   -0.8470   13.8710   -0.0550 C   0  0  0  0  0  0  0  0  0  0  0  0
   -3.6480   14.9170   -2.4670 C   0  0  0  0  0  0  0  0  0  0  0  0
   -4.8650   15.9310   -0.2960 C   0  0  0  0  0  0  0  0  0  0  0  0
   -3.3410   15.8810   -0.4850 C   0  0  0  0  0  0  0  0  0  0  0  0
   -6.5570   14.0590    0.3010 C   0  0  0  0  0  0  0  0  0  0  0  0
   -0.9770   13.9400   -2.4320 C   0  0  0  0  0  0  0  0  0  0  0  0
   -2.9550   14.8030   -3.5780 C   0  0  0  0  0  0  0  0  0  0  0  0
   -1.6150   14.2770   -3.5650 C   0  0  0  0  0  0  0  0  0  0  0  0
  2  1  1  6
  2  3  1  0
  2  4  1  0
  2  5  1  0
  4  6  1  1
  4  7  1  0
  3  8  2  0
  4  9  1  0
  5 10  1  0
  6 11  2  0
  6 12  1  0
  7 13  1  0
  8 14  1  0
 13 14  2  0
  7 15  1  6
  9 16  1  1
  7 17  1  0
 16 17  1  0
  9 18  1  0
 10 18  1  0
 13 19  1  0
 15 20  2  0
 19 21  2  0
 20 21  1  0
M  END
>  <%Rank>  (1062) 
80.992366

>  <N_hits>  (1062) 
2

>  <submitter_name>  (1062) 
nan

>  <original SMILES>  (1062) 
nan

>  <∆G_unbound>  (1062) 
0.701417

>  <∆G_bound>  (1062) 
-2.078125

>  <regarded>  (1062) 
mArh-mac-242_0_A_α,mArh-x0742_0_A_α

>  <ref_pdb>  (1062) 
nan

>  <smiles>  (1062) 
CC(=O)C12C3CCCC1(N)N=CC=C1C=CC=CC12CC3

>  <submitter_email>  (1062) 
nan

>  <disregarded>  (1062) 


>  <LE>  (1062) 
-0.132359

>  <submitter_institution>  (1062) 
nan

>  <ref_mols>  (1062) 
mArh-mac-242_0_A,mArh-x0742_0_A

>  <N_constrained_atoms>  (1062) 
14.0

>  <ref_url>  (1062) 
nan

>  <method>  (1062) 
nan

>  <comRMSD>  (1062) 
1.042472

>  <N_unconstrained_atoms>  (1062) 
7.0

>  <∆∆G>  (1062) 
-2.779541

>  <runtime>  (1062) 
32.213987

>  <generation_date>  (1062) 
nan

$$$$
mArh-x0918_0_B_α-5CB5_0_F_β
     RDKit          3D

 23 23  0  0  0  0  0  0  0  0999 V2000
   -3.2740   29.5700  -14.3020 N   0  0  0  0  0  0  0  0  0  0  0  0
   -4.5170   29.2240  -13.6860 C   0  0  0  0  0  0  0  0  0  0  0  0
   -4.6330   28.1370  -12.8540 C   0  0  0  0  0  0  0  0  0  0  0  0
   -5.6180   30.0170  -13.9580 C   0  0  0  0  0  0  0  0  0  0  0  0
   -6.8260   29.7070  -13.3770 C   0  0  0  0  0  0  0  0  0  0  0  0
   -5.8680   27.8300  -12.2860 C   0  0  0  0  0  0  0  0  0  0  0  0
   -6.1150   26.6340  -11.3830 C   0  0  0  0  0  0  0  0  0  0  0  0
   -6.8940   28.6370  -12.5750 N   0  0  0  0  0  0  0  0  0  0  0  0
   -5.1370   25.4770  -11.5280 C   0  0  0  0  0  0  0  0  0  0  0  0
   -5.5430   24.2960  -10.5580 C   0  0  0  0  0  0  0  0  0  0  0  0
   -4.3380   23.5390  -10.1290 C   0  0  0  0  0  0  0  0  0  0  0  0
   -4.1700   22.7900   -8.8770 C   0  0  0  0  0  0  0  0  0  0  0  0
   -2.8460   22.5350   -8.2600 C   0  0  0  0  0  0  0  0  0  0  0  0
   -2.5090   21.1980   -7.7040 C   0  0  0  0  0  0  0  0  0  0  0  0
   -1.6170   20.5060   -8.5510 O   0  0  0  0  0  0  0  0  0  0  0  0
   -0.3160   19.9110   -7.6540 P   0  0  0  0  0  0  0  0  0  0  0  0
   -0.4780   18.6940   -6.6240 O   0  0  0  0  0  0  0  0  0  0  0  0
    1.0910   20.7600   -7.6970 O   0  0  0  0  0  0  0  0  0  0  0  0
    0.2000   19.0520   -8.7610 O   0  0  0  0  0  0  0  0  0  0  0  0
   -2.0400   18.4360   -6.2060 P   0  0  0  0  0  0  0  0  0  0  0  0
   -2.5870   16.8680   -6.1500 O   0  0  0  0  0  0  0  0  0  0  0  0
   -1.6450   18.2000   -4.7910 O   0  0  0  0  0  0  0  0  0  0  0  0
   -2.9280   19.7160   -5.9190 O   0  0  0  0  0  0  0  0  0  0  0  0
  1  2  1  0
  2  3  2  0
  2  4  1  0
  4  5  2  0
  3  6  1  0
  6  7  1  0
  5  8  1  0
  6  8  2  0
  7  9  1  0
  9 10  1  0
 10 11  1  0
 11 12  1  0
 12 13  1  0
 13 14  1  0
 14 15  1  0
 15 16  1  0
 16 17  1  0
 16 18  1  0
 16 19  1  0
 17 20  1  0
 20 21  1  0
 20 22  1  0
 20 23  1  0
M  CHG  2  18  -1  22  -1
M  END
>  <%Rank>  (1063) 
81.068702

>  <N_hits>  (1063) 
2

>  <submitter_name>  (1063) 
nan

>  <original SMILES>  (1063) 
nan

>  <∆G_unbound>  (1063) 
0.940882

>  <∆G_bound>  (1063) 
-10.513059

>  <regarded>  (1063) 
mArh-x0918_0_B_α,5CB5_0_F_β

>  <ref_pdb>  (1063) 
nan

>  <smiles>  (1063) 
Nc1ccnc(CCCCCCCO[PH]([O-])(O)O[PH]([O-])(O)O)c1

>  <submitter_email>  (1063) 
nan

>  <disregarded>  (1063) 


>  <LE>  (1063) 
-0.497997

>  <submitter_institution>  (1063) 
nan

>  <ref_mols>  (1063) 
mArh-x0918_0_B,5CB5_0_F

>  <N_constrained_atoms>  (1063) 
16.0

>  <ref_url>  (1063) 
nan

>  <method>  (1063) 
nan

>  <comRMSD>  (1063) 
1.3081

>  <N_unconstrained_atoms>  (1063) 
7.0

>  <∆∆G>  (1063) 
-11.453941

>  <runtime>  (1063) 
42.587158

>  <generation_date>  (1063) 
nan

$$$$
mArh-3vfq_B_0_A_β-mArh-x1018_0_A_α
     RDKit          3D

 20 21  0  0  0  0  0  0  0  0999 V2000
   -2.9130   19.2490   -6.4730 O   0  0  0  0  0  0  0  0  0  0  0  0
   -2.1870   17.8610   -6.1830 P   0  0  0  0  0  0  0  0  0  0  0  0
   -2.9460   16.8830   -5.2060 O   0  0  0  0  0  0  0  0  0  0  0  0
   -0.7130   17.9730   -6.1600 O   0  0  0  0  0  0  0  0  0  0  0  0
   -2.7680   17.1010   -7.3470 O   0  0  0  0  0  0  0  0  0  0  0  0
   -3.9210   15.6940   -5.7690 P   0  0  1  0  0  0  0  0  0  0  0  0
   -4.0440   14.6050   -4.6130 O   0  0  0  0  0  0  0  0  0  0  0  0
   -5.2310   16.1250   -6.3450 O   0  0  0  0  0  0  0  0  0  0  0  0
   -3.2660   14.9500   -6.9740 O   0  0  0  0  0  0  0  0  0  0  0  0
   -4.6930   15.0060   -3.4120 C   0  0  0  0  0  0  0  0  0  0  0  0
   -4.4010   14.2010   -2.2350 N   0  0  0  0  0  0  0  0  0  0  0  0
   -2.9840   14.3450   -1.9570 N   0  0  0  0  0  0  0  0  0  0  0  0
   -5.0440   14.6260   -1.0790 N   0  0  0  0  0  0  0  0  0  0  0  0
   -2.8410   14.5750   -0.5150 N   0  0  0  0  0  0  0  0  0  0  0  0
   -4.1000   15.2220   -0.1620 C   0  0  2  0  0  0  0  0  0  0  0  0
   -6.3990   14.5720   -0.8880 N   0  0  0  0  0  0  0  0  0  0  0  0
   -6.7640   14.6310    0.3540 C   0  0  0  0  0  0  0  0  0  0  0  0
   -4.5570   15.0310    1.2360 C   0  0  0  0  0  0  0  0  0  0  0  0
   -8.4670   14.5710    0.6590 Cl  0  0  0  0  0  0  0  0  0  0  0  0
   -5.8440   14.7470    1.5050 C   0  0  0  0  0  0  0  0  0  0  0  0
  1  2  1  0
  2  3  1  0
  2  4  2  0
  2  5  1  0
  3  6  1  0
  6  7  1  0
  6  8  2  0
  6  9  1  6
  7 10  1  0
 10 11  1  0
 11 12  1  0
 11 13  1  0
 12 14  1  0
 13 15  1  0
 14 15  1  0
 13 16  1  0
 16 17  2  0
 15 18  1  1
 17 19  1  0
 17 20  1  0
 18 20  2  0
M  END
>  <%Rank>  (1064) 
81.145038

>  <N_hits>  (1064) 
2

>  <submitter_name>  (1064) 
nan

>  <original SMILES>  (1064) 
nan

>  <∆G_unbound>  (1064) 
2.343339

>  <∆G_bound>  (1064) 
0.280087

>  <regarded>  (1064) 
mArh-3vfq_B_0_A_β,mArh-x1018_0_A_α

>  <ref_pdb>  (1064) 
nan

>  <smiles>  (1064) 
O=P(O)(O)OP(=O)(O)OCN1NNC2C=CC(Cl)=NN21

>  <submitter_email>  (1064) 
nan

>  <disregarded>  (1064) 


>  <LE>  (1064) 
-0.103163

>  <submitter_institution>  (1064) 
nan

>  <ref_mols>  (1064) 
mArh-3vfq_B_0_A,mArh-x1018_0_A

>  <N_constrained_atoms>  (1064) 
19.0

>  <ref_url>  (1064) 
nan

>  <method>  (1064) 
nan

>  <comRMSD>  (1064) 
1.368313

>  <N_unconstrained_atoms>  (1064) 
1.0

>  <∆∆G>  (1064) 
-2.063252

>  <runtime>  (1064) 
28.280329

>  <generation_date>  (1064) 
nan

$$$$
5CB5_0_R_β-5MQX_0_A_α
     RDKit          3D

 20 20  0  0  0  0  0  0  0  0999 V2000
   -1.0120   21.2820   -8.4690 O   0  0  0  0  0  0  0  0  0  0  0  0
    0.0640   20.1100   -8.0390 P   0  0  0  0  0  0  0  0  0  0  0  0
   -0.6890   19.9710   -6.7650 O   0  0  0  0  0  0  0  0  0  0  0  0
    1.3990   20.6330   -7.2790 O   0  0  0  0  0  0  0  0  0  0  0  0
   -0.0880   18.5730   -8.5570 O   0  0  0  0  0  0  0  0  0  0  0  0
   -1.2980   18.6890   -5.8500 P   0  0  0  0  0  0  0  0  0  0  0  0
   -0.6080   17.2440   -5.7390 O   0  0  0  0  0  0  0  0  0  0  0  0
   -2.3310   18.1180   -6.8380 O   0  0  0  0  0  0  0  0  0  0  0  0
   -2.5620   19.3140   -5.0680 O   0  0  0  0  0  0  0  0  0  0  0  0
   -2.8370   20.6780   -5.1850 C   0  0  0  0  0  0  0  0  0  0  0  0
   -4.2760   21.1440   -5.6120 C   0  0  0  0  0  0  0  0  0  0  0  0
   -4.5900   20.6790   -7.0030 C   0  0  0  0  0  0  0  0  0  0  0  0
   -5.9670   20.0860   -7.3970 C   0  0  2  0  0  0  0  0  0  0  0  0
   -5.9260   18.6730   -7.2790 O   0  0  0  0  0  0  0  0  0  0  0  0
   -6.9310   20.4400   -8.5070 C   0  0  1  0  0  0  0  0  0  0  0  0
   -6.5360   21.1280   -9.6110 O   0  0  0  0  0  0  0  0  0  0  0  0
   -6.9900   18.0630   -7.9350 C   0  0  1  0  0  0  0  0  0  0  0  0
   -7.7580   19.1180   -8.7200 C   0  0  2  0  0  0  0  0  0  0  0  0
   -6.7250   16.8270   -8.4700 O   0  0  0  0  0  0  0  0  0  0  0  0
   -8.0450   18.8050  -10.0130 O   0  0  0  0  0  0  0  0  0  0  0  0
  1  2  1  0
  2  3  1  0
  2  4  1  0
  2  5  1  0
  3  6  1  0
  6  7  1  0
  6  8  1  0
  6  9  1  0
  9 10  1  0
 10 11  1  0
 11 12  1  0
 13 12  1  6
 13 14  1  0
 13 15  1  0
 15 16  1  6
 14 17  1  0
 15 18  1  0
 17 18  1  0
 17 19  1  6
 18 20  1  6
M  CHG  2   4  -1   8  -1
M  END
>  <%Rank>  (1065) 
81.221374

>  <N_hits>  (1065) 
2

>  <submitter_name>  (1065) 
nan

>  <original SMILES>  (1065) 
nan

>  <∆G_unbound>  (1065) 
1.35139

>  <∆G_bound>  (1065) 
0.922955

>  <regarded>  (1065) 
5CB5_0_R_β,5MQX_0_A_α

>  <ref_pdb>  (1065) 
nan

>  <smiles>  (1065) 
[O-][PH](O)(O)O[PH]([O-])(O)OCCCC1OC(O)C(O)C1O

>  <submitter_email>  (1065) 
nan

>  <disregarded>  (1065) 


>  <LE>  (1065) 
-0.021422

>  <submitter_institution>  (1065) 
nan

>  <ref_mols>  (1065) 
5CB5_0_R,5MQX_0_A

>  <N_constrained_atoms>  (1065) 
18.0

>  <ref_url>  (1065) 
nan

>  <method>  (1065) 
nan

>  <comRMSD>  (1065) 
1.285659

>  <N_unconstrained_atoms>  (1065) 
2.0

>  <∆∆G>  (1065) 
-0.428435

>  <runtime>  (1065) 
32.996975

>  <generation_date>  (1065) 
nan

$$$$
5CMS_0_Q_β-5CMS_0_N_β
     RDKit          3D

 10  9  0  0  0  0  0  0  0  0999 V2000
   -1.9690   19.1210   -7.6820 O   0  0  0  0  0  0  0  0  0  0  0  0
   -0.4750   19.2190   -7.6260 P   0  0  0  0  0  0  0  0  0  0  0  0
   -0.5650   18.2210   -6.3060 O   0  0  0  0  0  0  0  0  0  0  0  0
    1.0050   19.0130   -7.5300 O   0  0  0  0  0  0  0  0  0  0  0  0
   -0.4020   20.7910   -7.6270 O   0  0  0  0  0  0  0  0  0  0  0  0
   -0.1970   18.4190   -9.0220 O   0  0  0  0  0  0  0  0  0  0  0  0
   -1.8430   17.9560   -5.5250 P   0  0  0  0  0  0  0  0  0  0  0  0
   -0.9290   16.9830   -4.5700 O   0  0  0  0  0  0  0  0  0  0  0  0
   -2.6700   17.2450   -6.7570 O   0  0  0  0  0  0  0  0  0  0  0  0
   -2.1230   19.5230   -5.1850 O   0  0  0  0  0  0  0  0  0  0  0  0
  1  2  1  0
  2  3  1  0
  2  4  1  0
  2  5  1  0
  2  6  1  0
  3  7  1  0
  7  8  1  0
  7  9  1  0
  7 10  1  0
M  CHG  2   4  -1   9  -1
M  END
>  <%Rank>  (1066) 
81.29771

>  <N_hits>  (1066) 
2

>  <submitter_name>  (1066) 
nan

>  <original SMILES>  (1066) 
nan

>  <∆G_unbound>  (1066) 
0.789952

>  <∆G_bound>  (1066) 
-3.535952

>  <regarded>  (1066) 
5CMS_0_Q_β,5CMS_0_N_β

>  <ref_pdb>  (1066) 
nan

>  <smiles>  (1066) 
[O-][PH](O)(O)OP([O-])(O)(O)O

>  <submitter_email>  (1066) 
nan

>  <disregarded>  (1066) 


>  <LE>  (1066) 
-0.43259

>  <submitter_institution>  (1066) 
nan

>  <ref_mols>  (1066) 
5CMS_0_Q,5CMS_0_N

>  <N_constrained_atoms>  (1066) 
10.0

>  <ref_url>  (1066) 
nan

>  <method>  (1066) 
nan

>  <comRMSD>  (1066) 
1.3399

>  <N_unconstrained_atoms>  (1066) 
0.0

>  <∆∆G>  (1066) 
-4.325904

>  <runtime>  (1066) 
28.983041

>  <generation_date>  (1066) 
nan

$$$$
5CMS_0_M_α-mArh-x0591_0_A_α
     RDKit          3D

 30 31  0  0  0  0  0  0  0  0999 V2000
   -2.1050   21.3610   -7.9960 C   0  0  0  0  0  0  0  0  0  0  0  0
   -2.1170   22.1720   -9.2460 C   0  0  1  0  0  0  0  0  0  0  0  0
   -2.9470   21.5520  -10.2520 O   0  0  0  0  0  0  0  0  0  0  0  0
   -2.6250   23.5810   -9.0260 C   0  0  1  0  0  0  0  0  0  0  0  0
   -1.5110   24.4630   -9.1190 O   0  0  0  0  0  0  0  0  0  0  0  0
   -4.0880   22.3850  -10.4920 C   0  0  2  0  0  0  0  0  0  0  0  0
   -3.7360   23.8050  -10.0900 C   0  0  2  0  0  0  0  0  0  0  0  0
   -5.1350   21.9620   -9.5930 O   0  0  0  0  0  0  0  0  0  0  0  0
   -3.4960   24.7150  -11.1750 O   0  0  0  0  0  0  0  0  0  0  0  0
   -4.8700   22.3010   -8.1970 C   0  0  0  0  0  0  0  0  0  0  0  0
   -4.7350   21.0420   -7.3100 C   0  0  0  0  0  0  0  0  0  0  0  0
   -3.9360   21.2400   -5.9940 C   0  0  0  0  0  0  0  0  0  0  0  0
   -2.6870   20.3330   -5.7450 C   0  0  0  0  0  0  0  0  0  0  0  0
   -2.5740   19.0300   -6.5800 C   0  0  0  0  0  0  0  0  0  0  0  0
   -2.0010   17.7530   -5.8980 C   0  0  0  0  0  0  0  0  0  0  0  0
   -3.0430   16.6440   -5.6280 C   0  0  0  0  0  0  0  0  0  0  0  0
   -2.6370   15.2960   -5.9640 N   0  0  0  0  0  0  0  0  0  0  0  0
   -2.1570   14.4470   -4.8170 S   0  0  2  0  0  0  0  0  0  0  0  0
   -0.8100   15.3540   -4.4350 N   0  0  0  0  0  0  0  0  0  0  0  0
   -1.6380   13.1080   -4.8910 O   0  0  0  0  0  0  0  0  0  0  0  0
   -3.3320   14.5600   -3.5020 C   0  0  0  0  0  0  0  0  0  0  0  0
   -2.9200   14.3910   -2.1820 C   0  0  0  0  0  0  0  0  0  0  0  0
   -4.6660   14.8130   -3.8020 C   0  0  0  0  0  0  0  0  0  0  0  0
   -3.8570   14.4700   -1.1480 C   0  0  0  0  0  0  0  0  0  0  0  0
   -5.5990   14.8960   -2.7690 C   0  0  0  0  0  0  0  0  0  0  0  0
   -5.2050   14.7210   -1.4390 C   0  0  0  0  0  0  0  0  0  0  0  0
   -6.2500   14.8070   -0.3850 C   0  0  0  0  0  0  0  0  0  0  0  0
   -5.8460   14.6030    0.9130 N   0  0  0  0  0  0  0  0  0  0  0  0
   -7.4100   15.0390   -0.6980 O   0  0  0  0  0  0  0  0  0  0  0  0
   -6.8040   14.5150    1.9870 C   0  0  0  0  0  0  0  0  0  0  0  0
  2  1  1  1
  2  3  1  0
  2  4  1  0
  4  5  1  6
  3  6  1  0
  4  7  1  0
  6  7  1  0
  6  8  1  1
  7  9  1  6
  8 10  1  0
 10 11  1  0
 11 12  1  0
 12 13  1  0
 13 14  1  0
 14 15  1  0
 15 16  1  0
 16 17  1  0
 17 18  2  0
 18 19  1  1
 18 20  2  0
 18 21  1  0
 21 22  2  0
 21 23  1  0
 22 24  1  0
 23 25  2  0
 24 26  2  0
 25 26  1  0
 26 27  1  0
 27 28  1  0
 27 29  2  0
 28 30  1  0
M  END
>  <%Rank>  (1067) 
81.374046

>  <N_hits>  (1067) 
2

>  <submitter_name>  (1067) 
nan

>  <original SMILES>  (1067) 
nan

>  <∆G_unbound>  (1067) 
1.091362

>  <∆G_bound>  (1067) 
-7.374772

>  <regarded>  (1067) 
5CMS_0_M_α,mArh-x0591_0_A_α

>  <ref_pdb>  (1067) 
nan

>  <smiles>  (1067) 
CNC(=O)c1ccc(S(N)(=O)=NCCCCCCCOC2OC(C)C(O)C2O)cc1

>  <submitter_email>  (1067) 
nan

>  <disregarded>  (1067) 


>  <LE>  (1067) 
-0.282204

>  <submitter_institution>  (1067) 
nan

>  <ref_mols>  (1067) 
5CMS_0_M,mArh-x0591_0_A

>  <N_constrained_atoms>  (1067) 
23.0

>  <ref_url>  (1067) 
nan

>  <method>  (1067) 
nan

>  <comRMSD>  (1067) 
1.417342

>  <N_unconstrained_atoms>  (1067) 
7.0

>  <∆∆G>  (1067) 
-8.466134

>  <runtime>  (1067) 
46.061346

>  <generation_date>  (1067) 
nan

$$$$
5L9K_0_B_δ-5CB5_0_Q_α
     RDKit          3D

 24 26  0  0  0  0  0  0  0  0999 V2000
   -4.0950   16.0670    1.7180 N   0  0  0  0  0  0  0  0  0  0  0  0
   -3.3210   15.0010    1.1330 C   0  0  1  0  0  0  0  0  0  0  0  0
   -3.3760   14.8700   -0.4180 C   0  0  2  0  0  0  0  0  0  0  0  0
   -1.9740   15.1700    1.6400 N   0  0  0  0  0  0  0  0  0  0  0  0
   -2.1290   14.0910   -0.8390 C   0  0  1  0  0  0  0  0  0  0  0  0
   -3.3410   15.9580   -1.4240 N   0  0  0  0  0  0  0  0  0  0  0  0
   -1.0580   15.6210    0.6220 C   0  0  0  0  0  0  0  0  0  0  0  0
   -2.1400   14.1680   -2.2830 N   0  0  0  0  0  0  0  0  0  0  0  0
   -3.1810   15.1170   -2.6410 C   0  0  2  0  0  0  0  0  0  0  0  0
   -0.8690   14.5720   -0.3330 N   0  0  0  0  0  0  0  0  0  0  0  0
   -2.9300   15.7710   -4.0580 C   0  0  0  0  0  0  0  0  0  0  0  0
   -1.8600   16.8660   -4.3850 C   0  0  0  0  0  0  0  0  0  0  0  0
   -2.0820   17.6120   -5.7470 C   0  0  0  0  0  0  0  0  0  0  0  0
   -2.1400   19.1720   -5.6900 C   0  0  0  0  0  0  0  0  0  0  0  0
   -3.1320   19.8140   -6.6950 C   0  0  0  0  0  0  0  0  0  0  0  0
   -4.0090   20.8210   -6.1250 O   0  0  0  0  0  0  0  0  0  0  0  0
   -4.7700   21.5360   -7.1260 C   0  0  2  0  0  0  0  0  0  0  0  0
   -4.3770   21.0850   -8.4130 O   0  0  0  0  0  0  0  0  0  0  0  0
   -4.4630   23.0560   -7.0640 C   0  0  2  0  0  0  0  0  0  0  0  0
   -5.6530   23.8690   -6.9300 O   0  0  0  0  0  0  0  0  0  0  0  0
   -3.3830   21.9900   -8.8750 C   0  0  1  0  0  0  0  0  0  0  0  0
   -3.8570   23.3630   -8.4420 C   0  0  1  0  0  0  0  0  0  0  0  0
   -2.0080   21.6590   -8.3080 C   0  0  0  0  0  0  0  0  0  0  0  0
   -4.7850   23.9360   -9.3660 O   0  0  0  0  0  0  0  0  0  0  0  0
  2  1  1  6
  2  3  1  0
  2  4  1  0
  3  5  1  0
  3  6  1  6
  4  7  1  0
  5  8  1  6
  6  9  1  0
  8  9  1  0
  5 10  1  0
  7 10  1  0
  9 11  1  6
 11 12  1  0
 12 13  1  0
 13 14  1  0
 14 15  1  0
 15 16  1  0
 17 16  1  1
 17 18  1  0
 17 19  1  0
 19 20  1  6
 18 21  1  0
 19 22  1  0
 21 22  1  0
 21 23  1  1
 22 24  1  6
M  END
>  <%Rank>  (1068) 
81.450382

>  <N_hits>  (1068) 
2

>  <submitter_name>  (1068) 
nan

>  <original SMILES>  (1068) 
nan

>  <∆G_unbound>  (1068) 
0.335171

>  <∆G_bound>  (1068) 
-7.462602

>  <regarded>  (1068) 
5L9K_0_B_δ,5CB5_0_Q_α

>  <ref_pdb>  (1068) 
nan

>  <smiles>  (1068) 
CC1OC(OCCCCCC2NC3NCNC(N)C3N2)C(O)C1O

>  <submitter_email>  (1068) 
nan

>  <disregarded>  (1068) 


>  <LE>  (1068) 
-0.324907

>  <submitter_institution>  (1068) 
nan

>  <ref_mols>  (1068) 
5L9K_0_B,5CB5_0_Q

>  <N_constrained_atoms>  (1068) 
19.0

>  <ref_url>  (1068) 
nan

>  <method>  (1068) 
nan

>  <comRMSD>  (1068) 
1.390742

>  <N_unconstrained_atoms>  (1068) 
5.0

>  <∆∆G>  (1068) 
-7.797773

>  <runtime>  (1068) 
54.452089

>  <generation_date>  (1068) 
nan

$$$$
mArh-5cms_M_12_M_α-5CMS_0_N_β
     RDKit          3D

 17 17  0  0  0  0  0  0  0  0999 V2000
   -2.2960   21.2380   -8.1550 C   0  0  0  0  0  0  0  0  0  0  0  0
   -0.8330   20.2710   -8.0750 P   0  0  0  0  0  0  0  0  0  0  0  0
   -1.1540   19.7040   -6.6780 O   0  0  0  0  0  0  0  0  0  0  0  0
   -2.4150   22.0590   -9.4110 C   0  0  1  0  0  0  0  0  0  0  0  0
    0.5890   20.8620   -7.5930 O   0  0  0  0  0  0  0  0  0  0  0  0
   -0.7910   18.6490   -8.5800 O   0  0  0  0  0  0  0  0  0  0  0  0
   -3.2560   21.5300  -10.3920 O   0  0  0  0  0  0  0  0  0  0  0  0
   -2.8840   23.4670   -9.1670 C   0  0  1  0  0  0  0  0  0  0  0  0
   -1.7580   24.2480   -9.2300 O   0  0  0  0  0  0  0  0  0  0  0  0
   -1.5580   18.1280   -6.3400 P   0  0  0  0  0  0  0  0  0  0  0  0
   -4.0460   22.4980  -11.0000 C   0  0  2  0  0  0  0  0  0  0  0  0
   -3.8820   23.7920  -10.3060 C   0  0  2  0  0  0  0  0  0  0  0  0
   -5.4070   22.2620  -10.9960 O   0  0  0  0  0  0  0  0  0  0  0  0
   -3.4200   24.7930  -11.1990 O   0  0  0  0  0  0  0  0  0  0  0  0
   -0.3520   17.0680   -5.8580 O   0  0  0  0  0  0  0  0  0  0  0  0
   -1.7420   18.5160   -4.9020 O   0  0  0  0  0  0  0  0  0  0  0  0
   -3.0110   17.5070   -6.4860 O   0  0  0  0  0  0  0  0  0  0  0  0
  1  2  1  0
  2  3  1  0
  4  1  1  1
  2  5  1  0
  2  6  1  0
  4  7  1  0
  4  8  1  0
  8  9  1  6
  3 10  1  0
  7 11  1  0
  8 12  1  0
 11 12  1  0
 11 13  1  1
 12 14  1  6
 10 15  1  0
 10 16  1  0
 10 17  1  0
M  CHG  2   5  -1  16  -1
M  END
>  <%Rank>  (1069) 
81.526718

>  <N_hits>  (1069) 
2

>  <submitter_name>  (1069) 
nan

>  <original SMILES>  (1069) 
nan

>  <∆G_unbound>  (1069) 
1.818629

>  <∆G_bound>  (1069) 
-3.383797

>  <regarded>  (1069) 
mArh-5cms_M_12_M_α,5CMS_0_N_β

>  <ref_pdb>  (1069) 
nan

>  <smiles>  (1069) 
[O-][PH](O)(O)O[PH]([O-])(O)CC1OC(O)C(O)C1O

>  <submitter_email>  (1069) 
nan

>  <disregarded>  (1069) 


>  <LE>  (1069) 
-0.306025

>  <submitter_institution>  (1069) 
nan

>  <ref_mols>  (1069) 
mArh-5cms_M_12_M,5CMS_0_N

>  <N_constrained_atoms>  (1069) 
17.0

>  <ref_url>  (1069) 
nan

>  <method>  (1069) 
nan

>  <comRMSD>  (1069) 
1.472634

>  <N_unconstrained_atoms>  (1069) 
0.0

>  <∆∆G>  (1069) 
-5.202426

>  <runtime>  (1069) 
32.078959

>  <generation_date>  (1069) 
nan

$$$$
5LW0_1_B_β-5LW0_1_B_α
     RDKit          3D

 17 17  0  0  0  0  0  0  0  0999 V2000
   -2.0370   21.0780   -8.4060 O   0  0  0  0  0  0  0  0  0  0  0  0
   -1.2730   19.7410   -7.5970 P   0  0  0  0  0  0  0  0  0  0  0  0
   -2.1610   18.4620   -7.0710 O   0  0  0  0  0  0  0  0  0  0  0  0
   -3.4730   21.2230   -8.4950 C   0  0  1  0  0  0  0  0  0  0  0  0
   -1.5780   20.4640   -6.3220 O   0  0  0  0  0  0  0  0  0  0  0  0
   -0.8170   18.9800   -8.8480 O   0  0  0  0  0  0  0  0  0  0  0  0
   -4.1850   20.4050   -7.6490 O   0  0  0  0  0  0  0  0  0  0  0  0
   -4.0920   22.6260   -8.3750 C   0  0  1  0  0  0  0  0  0  0  0  0
   -1.7860   17.4620   -5.9540 P   0  0  0  0  0  0  0  0  0  0  0  0
   -4.6860   22.8180   -9.6250 O   0  0  0  0  0  0  0  0  0  0  0  0
   -5.1510   21.0560   -6.9500 C   0  0  1  0  0  0  0  0  0  0  0  0
   -5.2550   22.4690   -7.4010 C   0  0  2  0  0  0  0  0  0  0  0  0
   -1.2990   16.3750   -4.9840 O   0  0  0  0  0  0  0  0  0  0  0  0
   -3.0790   16.5200   -6.3590 O   0  0  0  0  0  0  0  0  0  0  0  0
   -1.9640   18.5960   -4.7840 O   0  0  0  0  0  0  0  0  0  0  0  0
   -6.3910   20.4720   -6.9990 O   0  0  0  0  0  0  0  0  0  0  0  0
   -6.4050   22.6550   -8.1900 O   0  0  0  0  0  0  0  0  0  0  0  0
  1  2  1  0
  2  3  1  0
  4  1  1  1
  2  5  1  0
  2  6  1  0
  4  7  1  0
  4  8  1  0
  3  9  1  0
  8 10  1  6
  7 11  1  0
  8 12  1  0
 11 12  1  0
  9 13  1  0
  9 14  1  0
  9 15  1  0
 11 16  1  6
 12 17  1  6
M  CHG  2   5  -1  14  -1
M  END
>  <%Rank>  (1070) 
81.603053

>  <N_hits>  (1070) 
2

>  <submitter_name>  (1070) 
nan

>  <original SMILES>  (1070) 
nan

>  <∆G_unbound>  (1070) 
0.972863

>  <∆G_bound>  (1070) 
-3.195508

>  <regarded>  (1070) 
5LW0_1_B_β,5LW0_1_B_α

>  <ref_pdb>  (1070) 
nan

>  <smiles>  (1070) 
[O-][PH](O)(O)O[PH]([O-])(O)OC1OC(O)C(O)C1O

>  <submitter_email>  (1070) 
nan

>  <disregarded>  (1070) 


>  <LE>  (1070) 
-0.245198

>  <submitter_institution>  (1070) 
nan

>  <ref_mols>  (1070) 
5LW0_1_B,5LW0_1_B

>  <N_constrained_atoms>  (1070) 
17.0

>  <ref_url>  (1070) 
nan

>  <method>  (1070) 
nan

>  <comRMSD>  (1070) 
1.450105

>  <N_unconstrained_atoms>  (1070) 
0.0

>  <∆∆G>  (1070) 
-4.168371

>  <runtime>  (1070) 
46.526199

>  <generation_date>  (1070) 
nan

$$$$
5CMS_0_D_γ-5CB3_0_A_α
     RDKit          3D

 24 26  0  0  0  0  0  0  0  0999 V2000
   -4.0520   15.6520    1.6220 N   0  0  0  0  0  0  0  0  0  0  0  0
   -3.0020   14.9760    0.8800 C   0  0  1  0  0  0  0  0  0  0  0  0
   -2.6430   15.5770   -0.4960 C   0  0  1  0  0  0  0  0  0  0  0  0
   -1.8620   15.0500    1.7720 N   0  0  0  0  0  0  0  0  0  0  0  0
   -1.3880   14.8380   -0.8960 C   0  0  1  0  0  0  0  0  0  0  0  0
   -3.4810   15.4190   -1.7160 N   0  0  0  0  0  0  0  0  0  0  0  0
   -0.6180   14.5010    1.2540 C   0  0  0  0  0  0  0  0  0  0  0  0
   -1.1760   15.3220   -2.2220 N   0  0  0  0  0  0  0  0  0  0  0  0
   -2.4920   15.1160   -2.7980 C   0  0  2  0  0  0  0  0  0  0  0  0
   -0.3010   15.1210   -0.0130 N   0  0  0  0  0  0  0  0  0  0  0  0
   -2.7330   15.9020   -4.1230 C   0  0  0  0  0  0  0  0  0  0  0  0
   -1.7210   17.0040   -4.5650 C   0  0  0  0  0  0  0  0  0  0  0  0
   -2.0700   17.7480   -5.8860 C   0  0  0  0  0  0  0  0  0  0  0  0
   -2.1800   19.2930   -5.7490 C   0  0  0  0  0  0  0  0  0  0  0  0
   -3.2290   19.9200   -6.6850 C   0  0  0  0  0  0  0  0  0  0  0  0
   -4.1110   20.8810   -6.0530 O   0  0  0  0  0  0  0  0  0  0  0  0
   -4.8340   21.6180   -7.0480 C   0  0  2  0  0  0  0  0  0  0  0  0
   -4.4770   21.0960   -8.3250 O   0  0  0  0  0  0  0  0  0  0  0  0
   -4.4190   23.1110   -7.0220 C   0  0  2  0  0  0  0  0  0  0  0  0
   -5.5390   24.0030   -6.8340 O   0  0  0  0  0  0  0  0  0  0  0  0
   -3.4530   21.9440   -8.8460 C   0  0  1  0  0  0  0  0  0  0  0  0
   -3.8440   23.3430   -8.4290 C   0  0  1  0  0  0  0  0  0  0  0  0
   -2.0700   21.5550   -8.3220 C   0  0  0  0  0  0  0  0  0  0  0  0
   -4.7780   23.9270   -9.3440 O   0  0  0  0  0  0  0  0  0  0  0  0
  2  1  1  1
  2  3  1  0
  2  4  1  0
  3  5  1  0
  3  6  1  6
  4  7  1  0
  5  8  1  6
  6  9  1  0
  8  9  1  0
  5 10  1  0
  7 10  1  0
  9 11  1  6
 11 12  1  0
 12 13  1  0
 13 14  1  0
 14 15  1  0
 15 16  1  0
 17 16  1  1
 17 18  1  0
 17 19  1  0
 19 20  1  6
 18 21  1  0
 19 22  1  0
 21 22  1  0
 21 23  1  1
 22 24  1  6
M  END
>  <%Rank>  (1071) 
81.679389

>  <N_hits>  (1071) 
2

>  <submitter_name>  (1071) 
nan

>  <original SMILES>  (1071) 
nan

>  <∆G_unbound>  (1071) 
0.335171

>  <∆G_bound>  (1071) 
-8.798576

>  <regarded>  (1071) 
5CMS_0_D_γ,5CB3_0_A_α

>  <ref_pdb>  (1071) 
nan

>  <smiles>  (1071) 
CC1OC(OCCCCCC2NC3NCNC(N)C3N2)C(O)C1O

>  <submitter_email>  (1071) 
nan

>  <disregarded>  (1071) 


>  <LE>  (1071) 
-0.380573

>  <submitter_institution>  (1071) 
nan

>  <ref_mols>  (1071) 
5CMS_0_D,5CB3_0_A

>  <N_constrained_atoms>  (1071) 
19.0

>  <ref_url>  (1071) 
nan

>  <method>  (1071) 
nan

>  <comRMSD>  (1071) 
1.432676

>  <N_unconstrained_atoms>  (1071) 
5.0

>  <∆∆G>  (1071) 
-9.133747

>  <runtime>  (1071) 
38.380173

>  <generation_date>  (1071) 
nan

$$$$
mArh-4gvw_0_A_α-5CMS_0_R_α
     RDKit          3D

 20 21  0  0  0  0  0  0  0  0999 V2000
   -0.2270   19.1300   -6.2200 O   0  0  0  0  0  0  0  0  0  0  0  0
   -0.0910   19.7260   -7.5470 S   0  0  0  0  0  0  0  0  0  0  0  0
    0.8430   20.8500   -7.6090 O   0  0  0  0  0  0  0  0  0  0  0  0
    0.0920   18.7140   -8.6270 O   0  0  0  0  0  0  0  0  0  0  0  0
   -1.8070   20.4660   -7.8560 C   0  0  1  0  0  0  0  0  0  0  0  0
   -2.4550   21.1900   -6.6700 C   0  0  0  0  0  0  0  0  0  0  0  0
   -1.8870   21.3940   -9.0220 N   0  0  0  0  0  0  0  0  0  0  0  0
   -3.9230   21.3890   -6.8060 N   0  0  0  0  0  0  0  0  0  0  0  0
   -1.1270   22.4610   -8.4100 C   0  0  0  0  0  0  0  0  0  0  0  0
   -3.2000   21.9410   -9.4060 C   0  0  2  0  0  0  0  0  0  0  0  0
   -3.4790   21.7190  -10.7380 O   0  0  0  0  0  0  0  0  0  0  0  0
   -4.4350   22.2680   -5.8060 C   0  0  0  0  0  0  0  0  0  0  0  0
   -4.3760   21.9260   -8.0990 C   0  0  0  0  0  0  0  0  0  0  0  0
   -3.1540   23.4680   -9.3010 C   0  0  2  0  0  0  0  0  0  0  0  0
   -1.9920   23.6950   -8.3670 C   0  0  2  0  0  0  0  0  0  0  0  0
   -1.2130   24.7260   -8.9100 O   0  0  0  0  0  0  0  0  0  0  0  0
   -4.3870   24.0690   -8.9080 O   0  0  0  0  0  0  0  0  0  0  0  0
   -4.7230   23.6770   -6.3730 C   0  0  0  0  0  0  0  0  0  0  0  0
   -5.8060   22.5000   -8.0510 C   0  0  0  0  0  0  0  0  0  0  0  0
   -5.8840   23.6510   -7.1950 O   0  0  0  0  0  0  0  0  0  0  0  0
  1  2  2  0
  2  3  2  0
  2  4  1  0
  2  5  1  0
  5  6  1  1
  5  7  1  0
  6  8  1  0
  7  9  1  0
  7 10  1  0
 10 11  1  6
  8 12  1  0
  8 13  1  0
 10 14  1  0
  9 15  1  0
 14 15  1  0
 15 16  1  6
 14 17  1  1
 12 18  1  0
 13 19  1  0
 18 20  1  0
 19 20  1  0
M  CHG  1   4  -1
M  END
>  <%Rank>  (1072) 
81.755725

>  <N_hits>  (1072) 
2

>  <submitter_name>  (1072) 
nan

>  <original SMILES>  (1072) 
nan

>  <∆G_unbound>  (1072) 
0.85161

>  <∆G_bound>  (1072) 
-3.065227

>  <regarded>  (1072) 
mArh-4gvw_0_A_α,5CMS_0_R_α

>  <ref_pdb>  (1072) 
nan

>  <smiles>  (1072) 
O=S(=O)([O-])C(CN1CCOCC1)N1CC(O)C(O)C1O

>  <submitter_email>  (1072) 
nan

>  <disregarded>  (1072) 


>  <LE>  (1072) 
-0.195842

>  <submitter_institution>  (1072) 
nan

>  <ref_mols>  (1072) 
mArh-4gvw_0_A,5CMS_0_R

>  <N_constrained_atoms>  (1072) 
20.0

>  <ref_url>  (1072) 
nan

>  <method>  (1072) 
nan

>  <comRMSD>  (1072) 
1.491166

>  <N_unconstrained_atoms>  (1072) 
0.0

>  <∆∆G>  (1072) 
-3.916837

>  <runtime>  (1072) 
41.845289

>  <generation_date>  (1072) 
nan

$$$$
5CB5_0_J_δ-mArh-5cb5_C_0_C_α
     RDKit          3D

 24 26  0  0  0  0  0  0  0  0999 V2000
   -4.1040   15.5050    1.5400 N   0  0  0  0  0  0  0  0  0  0  0  0
   -2.8230   15.4550    0.8510 C   0  0  2  0  0  0  0  0  0  0  0  0
   -2.8440   14.8110   -0.5550 C   0  0  2  0  0  0  0  0  0  0  0  0
   -1.9340   14.7520    1.7590 N   0  0  0  0  0  0  0  0  0  0  0  0
   -1.3730   14.6510   -0.9620 C   0  0  1  0  0  0  0  0  0  0  0  0
   -3.4610   15.4880   -1.7270 N   0  0  0  0  0  0  0  0  0  0  0  0
   -0.6110   14.5160    1.2040 C   0  0  0  0  0  0  0  0  0  0  0  0
   -1.2400   15.2510   -2.2630 N   0  0  0  0  0  0  0  0  0  0  0  0
   -2.5550   15.0930   -2.8280 C   0  0  2  0  0  0  0  0  0  0  0  0
   -0.4750   15.2570   -0.0250 N   0  0  0  0  0  0  0  0  0  0  0  0
   -2.7580   15.8740   -4.1570 C   0  0  0  0  0  0  0  0  0  0  0  0
   -1.7360   16.9810   -4.5610 C   0  0  0  0  0  0  0  0  0  0  0  0
   -2.0520   17.7290   -5.8850 C   0  0  0  0  0  0  0  0  0  0  0  0
   -2.1660   19.2730   -5.7440 C   0  0  0  0  0  0  0  0  0  0  0  0
   -3.1840   19.8870   -6.7150 C   0  0  0  0  0  0  0  0  0  0  0  0
   -4.1450   20.7790   -6.1020 O   0  0  0  0  0  0  0  0  0  0  0  0
   -4.7840   21.5900   -7.0960 C   0  0  2  0  0  0  0  0  0  0  0  0
   -4.3310   21.1670   -8.3810 O   0  0  0  0  0  0  0  0  0  0  0  0
   -4.3570   23.0640   -6.9010 C   0  0  2  0  0  0  0  0  0  0  0  0
   -5.4680   23.9620   -6.6560 O   0  0  0  0  0  0  0  0  0  0  0  0
   -3.3120   22.0800   -8.7940 C   0  0  1  0  0  0  0  0  0  0  0  0
   -3.7440   23.4260   -8.2560 C   0  0  1  0  0  0  0  0  0  0  0  0
   -1.9350   21.6680   -8.2860 C   0  0  0  0  0  0  0  0  0  0  0  0
   -4.6760   24.0640   -9.1250 O   0  0  0  0  0  0  0  0  0  0  0  0
  2  1  1  1
  2  3  1  0
  2  4  1  0
  3  5  1  0
  3  6  1  6
  4  7  1  0
  5  8  1  6
  6  9  1  0
  8  9  1  0
  5 10  1  0
  7 10  1  0
  9 11  1  6
 11 12  1  0
 12 13  1  0
 13 14  1  0
 14 15  1  0
 15 16  1  0
 17 16  1  1
 17 18  1  0
 17 19  1  0
 19 20  1  6
 18 21  1  0
 19 22  1  0
 21 22  1  0
 21 23  1  1
 22 24  1  6
M  END
>  <%Rank>  (1073) 
81.832061

>  <N_hits>  (1073) 
2

>  <submitter_name>  (1073) 
nan

>  <original SMILES>  (1073) 
nan

>  <∆G_unbound>  (1073) 
0.335171

>  <∆G_bound>  (1073) 
-8.843277

>  <regarded>  (1073) 
5CB5_0_J_δ,mArh-5cb5_C_0_C_α

>  <ref_pdb>  (1073) 
nan

>  <smiles>  (1073) 
CC1OC(OCCCCCC2NC3NCNC(N)C3N2)C(O)C1O

>  <submitter_email>  (1073) 
nan

>  <disregarded>  (1073) 


>  <LE>  (1073) 
-0.382435

>  <submitter_institution>  (1073) 
nan

>  <ref_mols>  (1073) 
5CB5_0_J,mArh-5cb5_C_0_C

>  <N_constrained_atoms>  (1073) 
19.0

>  <ref_url>  (1073) 
nan

>  <method>  (1073) 
nan

>  <comRMSD>  (1073) 
1.446177

>  <N_unconstrained_atoms>  (1073) 
5.0

>  <∆∆G>  (1073) 
-9.178448

>  <runtime>  (1073) 
41.895108

>  <generation_date>  (1073) 
nan

$$$$
mArh-5lw0_B_1_B_β-5CMS_0_B_α
     RDKit          3D

 20 20  0  0  0  0  0  0  0  0999 V2000
   -1.4740   19.4870   -8.6750 O   0  0  0  0  0  0  0  0  0  0  0  0
   -0.2920   19.3220   -7.8090 P   0  0  0  0  0  0  0  0  0  0  0  0
   -0.6490   18.7580   -6.3770 O   0  0  0  0  0  0  0  0  0  0  0  0
    0.2550   20.8680   -7.9140 N   0  0  0  0  0  0  0  0  0  0  0  0
    0.3990   18.3390   -8.7800 O   0  0  0  0  0  0  0  0  0  0  0  0
   -1.6720   17.6180   -5.8920 P   0  0  0  0  0  0  0  0  0  0  0  0
   -0.6240   21.8770   -7.3060 C   0  0  0  0  0  0  0  0  0  0  0  0
   -0.7540   16.4020   -5.4110 O   0  0  0  0  0  0  0  0  0  0  0  0
   -2.7280   17.1970   -6.8350 O   0  0  0  0  0  0  0  0  0  0  0  0
   -2.2360   18.1370   -4.5300 O   0  0  0  0  0  0  0  0  0  0  0  0
   -1.8430   22.4830   -8.0860 C   0  0  0  0  0  0  0  0  0  0  0  0
   -2.6780   21.6790   -9.1080 C   0  0  0  0  0  0  0  0  0  0  0  0
   -3.8020   22.4450   -9.9030 C   0  0  1  0  0  0  0  0  0  0  0  0
   -3.6070   23.8350   -9.6860 O   0  0  0  0  0  0  0  0  0  0  0  0
   -4.1140   22.3180  -11.4420 C   0  0  1  0  0  0  0  0  0  0  0  0
   -5.3960   21.8100  -11.7300 O   0  0  0  0  0  0  0  0  0  0  0  0
   -3.9340   24.5640  -10.8720 C   0  0  1  0  0  0  0  0  0  0  0  0
   -4.4780   23.6850  -11.9420 C   0  0  1  0  0  0  0  0  0  0  0  0
   -4.9400   25.4220  -10.4770 O   0  0  0  0  0  0  0  0  0  0  0  0
   -4.0380   23.9760  -13.2700 O   0  0  0  0  0  0  0  0  0  0  0  0
  1  2  1  0
  2  3  1  0
  2  4  2  3
  2  5  1  0
  3  6  1  0
  4  7  1  0
  6  8  1  0
  6  9  2  0
  6 10  1  0
  7 11  1  0
 11 12  1  0
 13 12  1  6
 13 14  1  0
 13 15  1  0
 15 16  1  1
 14 17  1  0
 15 18  1  0
 17 18  1  0
 17 19  1  1
 18 20  1  6
M  END
>  <%Rank>  (1074) 
81.908397

>  <N_hits>  (1074) 
2

>  <submitter_name>  (1074) 
nan

>  <original SMILES>  (1074) 
nan

>  <∆G_unbound>  (1074) 
3.464872

>  <∆G_bound>  (1074) 
-5.081007

>  <regarded>  (1074) 
mArh-5lw0_B_1_B_β,5CMS_0_B_α

>  <ref_pdb>  (1074) 
nan

>  <smiles>  (1074) 
O=P(O)(O)OP(O)(O)=NCCCC1OC(O)C(O)C1O

>  <submitter_email>  (1074) 
nan

>  <disregarded>  (1074) 


>  <LE>  (1074) 
-0.427294

>  <submitter_institution>  (1074) 
nan

>  <ref_mols>  (1074) 
mArh-5lw0_B_1_B,5CMS_0_B

>  <N_constrained_atoms>  (1074) 
18.0

>  <ref_url>  (1074) 
nan

>  <method>  (1074) 
nan

>  <comRMSD>  (1074) 
1.525738

>  <N_unconstrained_atoms>  (1074) 
2.0

>  <∆∆G>  (1074) 
-8.545879

>  <runtime>  (1074) 
34.160554

>  <generation_date>  (1074) 
nan

$$$$
5CB5_0_M_δ-mArh-x0962_0_A_α
     RDKit          3D

 16 18  0  0  0  0  0  0  0  0999 V2000
   -3.0640   14.2460    1.8100 N   0  0  0  0  0  0  0  0  0  0  0  0
   -2.3290   14.8230    0.7170 C   0  0  2  0  0  0  0  0  0  0  0  0
   -1.9090   13.8710   -0.4270 C   0  0  2  0  0  0  0  0  0  0  0  0
   -1.1600   15.3250    1.3670 N   0  0  0  0  0  0  0  0  0  0  0  0
   -1.2500   14.7820   -1.4220 C   0  0  1  0  0  0  0  0  0  0  0  0
   -2.9370   13.2200   -1.2390 N   0  0  0  0  0  0  0  0  0  0  0  0
   -0.0030   15.1970    0.5160 C   0  0  0  0  0  0  0  0  0  0  0  0
   -2.4550   15.4410   -1.9710 N   0  0  0  0  0  0  0  0  0  0  0  0
   -3.5220   14.3830   -1.8880 C   0  0  2  0  0  0  0  0  0  0  0  0
   -0.3710   15.7250   -0.7750 N   0  0  0  0  0  0  0  0  0  0  0  0
   -4.7080   14.6360   -1.0360 C   0  0  0  0  0  0  0  0  0  0  0  0
   -2.2370   15.8110   -3.3770 N   0  0  0  0  0  0  0  0  0  0  0  0
   -4.7280   14.2680    0.2900 N   0  0  0  0  0  0  0  0  0  0  0  0
   -5.9410   15.1930   -1.2550 C   0  0  0  0  0  0  0  0  0  0  0  0
   -5.9330   14.6010    0.8040 C   0  0  0  0  0  0  0  0  0  0  0  0
   -6.6950   15.1600   -0.1110 N   0  0  0  0  0  0  0  0  0  0  0  0
  2  1  1  1
  2  3  1  0
  2  4  1  0
  3  5  1  0
  3  6  1  6
  4  7  1  0
  5  8  1  0
  6  9  1  0
  8  9  1  0
  5 10  1  1
  7 10  1  0
  9 11  1  1
  8 12  1  0
 11 13  1  0
 11 14  2  0
 13 15  1  0
 14 16  1  0
 15 16  2  0
M  END
>  <%Rank>  (1075) 
81.984733

>  <N_hits>  (1075) 
2

>  <submitter_name>  (1075) 
nan

>  <original SMILES>  (1075) 
nan

>  <∆G_unbound>  (1075) 
2.780437

>  <∆G_bound>  (1075) 
1.720032

>  <regarded>  (1075) 
5CB5_0_M_δ,mArh-x0962_0_A_α

>  <ref_pdb>  (1075) 
nan

>  <smiles>  (1075) 
NC1NCNC2C1NC(c1cnc[nH]1)N2N

>  <submitter_email>  (1075) 
nan

>  <disregarded>  (1075) 


>  <LE>  (1075) 
-0.066275

>  <submitter_institution>  (1075) 
nan

>  <ref_mols>  (1075) 
5CB5_0_M,mArh-x0962_0_A

>  <N_constrained_atoms>  (1075) 
16.0

>  <ref_url>  (1075) 
nan

>  <method>  (1075) 
nan

>  <comRMSD>  (1075) 
1.35887

>  <N_unconstrained_atoms>  (1075) 
0.0

>  <∆∆G>  (1075) 
-1.060404

>  <runtime>  (1075) 
37.987891

>  <generation_date>  (1075) 
nan

$$$$
mArh-5l9k_A_0_A_β-mArh-x0910_2_B_α
     RDKit          3D

 22 22  0  0  0  0  0  0  0  0999 V2000
   -2.2270   20.2640   -7.8940 O   0  0  0  0  0  0  0  0  0  0  0  0
   -1.0920   19.2340   -7.4130 P   0  0  0  0  0  0  0  0  0  0  0  0
   -1.7320   18.6030   -6.0170 O   0  0  0  0  0  0  0  0  0  0  0  0
   -0.5610   18.3770   -8.5030 O   0  0  0  0  0  0  0  0  0  0  0  0
   -0.0310   20.3270   -7.0040 O   0  0  0  0  0  0  0  0  0  0  0  0
   -2.2930   17.0930   -5.7070 P   0  0  0  0  0  0  0  0  0  0  0  0
   -1.0440   16.1460   -5.5530 O   0  0  0  0  0  0  0  0  0  0  0  0
   -3.1740   16.6660   -4.2750 N   0  0  0  0  0  0  0  0  0  0  0  0
   -3.2010   16.6770   -6.9390 O   0  0  0  0  0  0  0  0  0  0  0  0
   -3.7000   15.3200   -3.7290 C   0  0  0  0  0  0  0  0  0  0  0  0
   -5.2820   15.0150   -3.3390 C   0  0  0  0  0  0  0  0  0  0  0  0
   -6.0920   15.5960   -2.0400 C   0  0  0  0  0  0  0  0  0  0  0  0
   -7.7260   15.6990   -2.0390 C   0  0  0  0  0  0  0  0  0  0  0  0
   -8.5810   16.9470   -1.4080 C   0  0  0  0  0  0  0  0  0  0  0  0
   -9.9870   17.4370   -2.0420 C   0  0  0  0  0  0  0  0  0  0  0  0
  -10.8360   18.6320   -1.3590 C   0  0  0  0  0  0  0  0  0  0  0  0
  -11.4180   19.7440   -2.2700 N   0  0  0  0  0  0  0  0  0  0  0  0
  -11.8960   21.0180   -1.8370 C   0  0  0  0  0  0  0  0  0  0  0  0
  -11.3520   22.1990   -2.3130 N   0  0  0  0  0  0  0  0  0  0  0  0
  -12.8580   21.3700   -0.9840 N   0  0  0  0  0  0  0  0  0  0  0  0
  -11.9350   23.3120   -1.7750 N   0  0  0  0  0  0  0  0  0  0  0  0
  -12.8400   22.7450   -0.9780 C   0  0  0  0  0  0  0  0  0  0  0  0
  1  2  1  0
  2  3  1  0
  2  4  2  0
  2  5  1  0
  3  6  1  0
  6  7  1  0
  6  8  2  3
  6  9  1  0
  8 10  1  0
 10 11  1  0
 11 12  1  0
 12 13  1  0
 13 14  1  0
 14 15  1  0
 15 16  1  0
 16 17  1  0
 17 18  1  0
 18 19  1  0
 18 20  2  0
 19 21  1  0
 20 22  1  0
 21 22  2  0
M  END
>  <%Rank>  (1076) 
82.061069

>  <N_hits>  (1076) 
2

>  <submitter_name>  (1076) 
nan

>  <original SMILES>  (1076) 
nan

>  <∆G_unbound>  (1076) 
2.005194

>  <∆G_bound>  (1076) 
-6.110567

>  <regarded>  (1076) 
mArh-5l9k_A_0_A_β,mArh-x0910_2_B_α

>  <ref_pdb>  (1076) 
nan

>  <smiles>  (1076) 
O=P(O)(O)OP(O)(O)=NCCCCCCCNc1ncn[nH]1

>  <submitter_email>  (1076) 
nan

>  <disregarded>  (1076) 


>  <LE>  (1076) 
-0.368898

>  <submitter_institution>  (1076) 
nan

>  <ref_mols>  (1076) 
mArh-5l9k_A_0_A,mArh-x0910_2_B

>  <N_constrained_atoms>  (1076) 
15.0

>  <ref_url>  (1076) 
nan

>  <method>  (1076) 
nan

>  <comRMSD>  (1076) 
1.255207

>  <N_unconstrained_atoms>  (1076) 
7.0

>  <∆∆G>  (1076) 
-8.115762

>  <runtime>  (1076) 
33.812264

>  <generation_date>  (1076) 
nan

$$$$
5MQX_0_A_α-mArh-5cms_E_5_E_γ
     RDKit          3D

 22 23  0  0  0  0  0  0  0  0999 V2000
   -5.9940   20.4060   -7.7710 C   0  0  0  0  0  0  0  0  0  0  0  0
   -6.7200   19.0990   -8.0120 C   0  0  2  0  0  0  0  0  0  0  0  0
   -6.0350   17.8860   -7.7480 O   0  0  0  0  0  0  0  0  0  0  0  0
   -7.9250   18.9590   -8.8990 C   0  0  1  0  0  0  0  0  0  0  0  0
   -7.7430   19.3480  -10.2420 O   0  0  0  0  0  0  0  0  0  0  0  0
   -6.9210   16.8380   -8.1170 C   0  0  2  0  0  0  0  0  0  0  0  0
   -8.2110   17.4740   -8.7090 C   0  0  2  0  0  0  0  0  0  0  0  0
   -7.2410   16.0300   -6.9860 O   0  0  0  0  0  0  0  0  0  0  0  0
   -8.6370   16.9180   -9.9360 O   0  0  0  0  0  0  0  0  0  0  0  0
   -6.7130   14.6970   -7.0670 C   0  0  0  0  0  0  0  0  0  0  0  0
   -5.1770   14.6130   -7.1470 C   0  0  0  0  0  0  0  0  0  0  0  0
   -4.5520   15.5700   -6.1340 C   0  0  0  0  0  0  0  0  0  0  0  0
   -3.0360   15.6740   -6.1850 C   0  0  0  0  0  0  0  0  0  0  0  0
   -2.3060   16.0650   -4.8760 C   0  0  0  0  0  0  0  0  0  0  0  0
   -0.8220   16.5150   -5.0480 C   0  0  0  0  0  0  0  0  0  0  0  0
    0.2250   15.4750   -4.5870 C   0  0  1  0  0  0  0  0  0  0  0  0
    0.0380   15.3080   -3.1620 O   0  0  0  0  0  0  0  0  0  0  0  0
    0.1200   14.0530   -5.1490 C   0  0  1  0  0  0  0  0  0  0  0  0
    1.2970   13.2630   -5.1100 O   0  0  0  0  0  0  0  0  0  0  0  0
   -0.7510   14.1300   -2.9430 C   0  0  0  0  0  0  0  0  0  0  0  0
   -0.9560   13.4340   -4.2830 C   0  0  2  0  0  0  0  0  0  0  0  0
   -0.7680   12.0290   -4.2330 O   0  0  0  0  0  0  0  0  0  0  0  0
  2  1  1  6
  2  3  1  0
  2  4  1  0
  4  5  1  6
  3  6  1  0
  4  7  1  0
  6  7  1  0
  6  8  1  1
  7  9  1  6
  8 10  1  0
 10 11  1  0
 11 12  1  0
 12 13  1  0
 13 14  1  0
 14 15  1  0
 16 15  1  6
 16 17  1  0
 16 18  1  0
 18 19  1  1
 17 20  1  0
 18 21  1  0
 20 21  1  0
 21 22  1  1
M  END
>  <%Rank>  (1077) 
82.137405

>  <N_hits>  (1077) 
2

>  <submitter_name>  (1077) 
nan

>  <original SMILES>  (1077) 
nan

>  <∆G_unbound>  (1077) 
0.187336

>  <∆G_bound>  (1077) 
-1.314341

>  <regarded>  (1077) 
5MQX_0_A_α,mArh-5cms_E_5_E_γ

>  <ref_pdb>  (1077) 
nan

>  <smiles>  (1077) 
CC1OC(OCCCCCCC2OCC(O)C2O)C(O)C1O

>  <submitter_email>  (1077) 
nan

>  <disregarded>  (1077) 


>  <LE>  (1077) 
-0.068258

>  <submitter_institution>  (1077) 
nan

>  <ref_mols>  (1077) 
5MQX_0_A,mArh-5cms_E_5_E

>  <N_constrained_atoms>  (1077) 
17.0

>  <ref_url>  (1077) 
nan

>  <method>  (1077) 
nan

>  <comRMSD>  (1077) 
1.238324

>  <N_unconstrained_atoms>  (1077) 
5.0

>  <∆∆G>  (1077) 
-1.501676

>  <runtime>  (1077) 
31.532831

>  <generation_date>  (1077) 
nan

$$$$
6WOJ_0_B_δ-mArh-5cms_F_6_F_α
     RDKit          3D

 26 28  0  0  0  0  0  0  0  0999 V2000
   -3.8940   15.3240    1.4580 N   0  0  0  0  0  0  0  0  0  0  0  0
   -2.8780   14.5800    0.7270 C   0  0  1  0  0  0  0  0  0  0  0  0
   -2.3270   15.3290   -0.5180 C   0  0  1  0  0  0  0  0  0  0  0  0
   -1.8950   14.3470    1.7590 N   0  0  0  0  0  0  0  0  0  0  0  0
   -1.0400   14.6480   -0.9650 C   0  0  2  0  0  0  0  0  0  0  0  0
   -3.1640   15.4170   -1.7550 N   0  0  0  0  0  0  0  0  0  0  0  0
   -0.5210   14.1910    1.3220 C   0  0  0  0  0  0  0  0  0  0  0  0
   -1.4710   13.9640   -2.1600 N   0  0  0  0  0  0  0  0  0  0  0  0
   -2.2590   14.9640   -2.8200 C   0  0  2  0  0  0  0  0  0  0  0  0
   -0.4670   13.7150   -0.0380 N   0  0  0  0  0  0  0  0  0  0  0  0
   -1.2760   16.0210   -3.3980 C   0  0  0  0  0  0  0  0  0  0  0  0
   -1.8300   17.0860   -4.3590 C   0  0  0  0  0  0  0  0  0  0  0  0
   -1.1200   17.2260   -5.6950 C   0  0  0  0  0  0  0  0  0  0  0  0
   -0.4100   18.5650   -5.9260 C   0  0  0  0  0  0  0  0  0  0  0  0
    0.0750   18.8500   -7.3520 C   0  0  0  0  0  0  0  0  0  0  0  0
   -0.0640   20.2940   -7.8340 C   0  0  0  0  0  0  0  0  0  0  0  0
   -1.4190   20.6640   -8.3970 C   0  0  0  0  0  0  0  0  0  0  0  0
   -1.7950   22.1200   -8.1840 C   0  0  0  0  0  0  0  0  0  0  0  0
   -2.1680   22.9840   -9.3810 C   0  0  2  0  0  0  0  0  0  0  0  0
   -2.8050   22.2520  -10.4340 O   0  0  0  0  0  0  0  0  0  0  0  0
   -1.1000   23.8440  -10.0650 C   0  0  1  0  0  0  0  0  0  0  0  0
    0.1470   23.1460  -10.2500 O   0  0  0  0  0  0  0  0  0  0  0  0
   -3.0930   23.3170  -11.3140 C   0  0  2  0  0  0  0  0  0  0  0  0
   -1.7170   24.0070  -11.4390 C   0  0  1  0  0  0  0  0  0  0  0  0
   -4.1200   24.1150  -10.7430 O   0  0  0  0  0  0  0  0  0  0  0  0
   -1.7280   25.3590  -11.8860 O   0  0  0  0  0  0  0  0  0  0  0  0
  2  1  1  1
  2  3  1  0
  2  4  1  0
  3  5  1  0
  3  6  1  6
  4  7  1  0
  5  8  1  6
  6  9  1  0
  8  9  1  0
  5 10  1  0
  7 10  1  0
  9 11  1  1
 11 12  1  0
 12 13  1  0
 13 14  1  0
 14 15  1  0
 15 16  1  0
 16 17  1  0
 17 18  1  0
 19 18  1  1
 19 20  1  0
 19 21  1  0
 21 22  1  6
 20 23  1  0
 21 24  1  0
 23 24  1  0
 23 25  1  1
 24 26  1  1
M  END
>  <%Rank>  (1078) 
82.21374

>  <N_hits>  (1078) 
2

>  <submitter_name>  (1078) 
nan

>  <original SMILES>  (1078) 
nan

>  <∆G_unbound>  (1078) 
0.265432

>  <∆G_bound>  (1078) 
-8.543415

>  <regarded>  (1078) 
6WOJ_0_B_δ,mArh-5cms_F_6_F_α

>  <ref_pdb>  (1078) 
nan

>  <smiles>  (1078) 
NC1NCNC2NC(CCCCCCCCC3OC(O)C(O)C3O)NC12

>  <submitter_email>  (1078) 
nan

>  <disregarded>  (1078) 


>  <LE>  (1078) 
-0.338802

>  <submitter_institution>  (1078) 
nan

>  <ref_mols>  (1078) 
6WOJ_0_B,mArh-5cms_F_6_F

>  <N_constrained_atoms>  (1078) 
19.0

>  <ref_url>  (1078) 
nan

>  <method>  (1078) 
nan

>  <comRMSD>  (1078) 
1.382459

>  <N_unconstrained_atoms>  (1078) 
7.0

>  <∆∆G>  (1078) 
-8.808847

>  <runtime>  (1078) 
49.015295

>  <generation_date>  (1078) 
nan

$$$$
3EW5_1_B_α-5CB5_0_N_α
     RDKit          3D

 17 18  0  0  0  0  0  0  0  0999 V2000
   -1.2450   20.0140   -7.8520 P   0  0  0  0  0  0  0  0  0  0  0  0
   -2.2890   21.2660   -8.0260 N   0  0  0  0  0  0  0  0  0  0  0  0
   -2.4010   21.7740   -6.7820 C   0  0  0  0  0  0  0  0  0  0  0  0
   -0.4420   19.5380   -9.1750 O   0  0  0  0  0  0  0  0  0  0  0  0
   -0.6110   18.9960   -6.7630 O   0  0  0  0  0  0  0  0  0  0  0  0
   -0.2060   21.0440   -7.2220 O   0  0  0  0  0  0  0  0  0  0  0  0
   -3.2910   21.8900   -8.8060 C   0  0  1  0  0  0  0  0  0  0  0  0
   -3.7370   21.7060   -6.1540 C   0  0  2  0  0  0  0  0  0  0  0  0
   -4.7570   21.7050   -8.2720 C   0  0  1  0  0  0  0  0  0  0  0  0
   -3.2600   23.4080   -8.8000 C   0  0  1  0  0  0  0  0  0  0  0  0
   -4.7650   21.0350   -6.9680 C   0  0  2  0  0  0  0  0  0  0  0  0
   -4.1870   23.0260   -6.1390 O   0  0  0  0  0  0  0  0  0  0  0  0
   -4.0540   23.9270   -9.8690 O   0  0  0  0  0  0  0  0  0  0  0  0
   -5.2970   23.0980   -8.0170 C   0  0  1  0  0  0  0  0  0  0  0  0
   -4.0280   23.7690   -7.5980 C   0  0  0  0  0  0  0  0  0  0  0  0
   -5.9700   21.3250   -6.3200 O   0  0  0  0  0  0  0  0  0  0  0  0
   -5.7250   23.8220   -9.1580 O   0  0  0  0  0  0  0  0  0  0  0  0
  1  2  1  0
  2  3  1  0
  1  4  1  0
  1  5  1  0
  1  6  1  0
  7  2  1  1
  3  8  1  0
  7  9  1  0
  7 10  1  0
  8 11  1  0
  9 11  1  0
  8 12  1  6
 10 13  1  6
  9 14  1  1
 10 15  1  0
 14 15  1  0
 11 16  1  1
 14 17  1  6
M  CHG  1   5  -1
M  END
>  <%Rank>  (1079) 
82.290076

>  <N_hits>  (1079) 
2

>  <submitter_name>  (1079) 
nan

>  <original SMILES>  (1079) 
nan

>  <∆G_unbound>  (1079) 
1.026869

>  <∆G_bound>  (1079) 
-1.971744

>  <regarded>  (1079) 
3EW5_1_B_α,5CB5_0_N_α

>  <ref_pdb>  (1079) 
nan

>  <smiles>  (1079) 
[O-][PH](O)(O)N1C[C@@H](O)C(O)C2C(O)CC(O)C21

>  <submitter_email>  (1079) 
nan

>  <disregarded>  (1079) 


>  <LE>  (1079) 
-0.176389

>  <submitter_institution>  (1079) 
nan

>  <ref_mols>  (1079) 
3EW5_1_B,5CB5_0_N

>  <N_constrained_atoms>  (1079) 
14.0

>  <ref_url>  (1079) 
nan

>  <method>  (1079) 
nan

>  <comRMSD>  (1079) 
1.271998

>  <N_unconstrained_atoms>  (1079) 
3.0

>  <∆∆G>  (1079) 
-2.998613

>  <runtime>  (1079) 
24.856898

>  <generation_date>  (1079) 
nan

$$$$
5CMS_0_I_α-3Q6Z_0_A_δ
     RDKit          3D

 26 28  0  0  0  0  0  0  0  0999 V2000
   -1.5620   21.8320   -7.3200 C   0  0  0  0  0  0  0  0  0  0  0  0
   -2.4780   22.9610   -7.7870 C   0  0  2  0  0  0  0  0  0  0  0  0
   -3.8630   22.6770   -7.6920 O   0  0  0  0  0  0  0  0  0  0  0  0
   -2.2000   23.2150   -9.1890 C   0  0  1  0  0  0  0  0  0  0  0  0
   -1.4270   22.0890   -9.5180 O   0  0  0  0  0  0  0  0  0  0  0  0
   -4.5370   23.0610   -8.8930 C   0  0  1  0  0  0  0  0  0  0  0  0
   -3.5200   23.2690   -9.9900 C   0  0  2  0  0  0  0  0  0  0  0  0
   -5.3230   21.9310   -9.1110 O   0  0  0  0  0  0  0  0  0  0  0  0
   -3.6340   22.2600  -11.0090 O   0  0  0  0  0  0  0  0  0  0  0  0
   -5.2290   21.3150   -7.8220 C   0  0  0  0  0  0  0  0  0  0  0  0
   -3.7230   21.1100   -7.5000 C   0  0  0  0  0  0  0  0  0  0  0  0
   -3.5190   19.9650   -6.5380 C   0  0  0  0  0  0  0  0  0  0  0  0
   -2.1390   19.3300   -6.1930 C   0  0  0  0  0  0  0  0  0  0  0  0
   -2.0110   17.7740   -6.2760 C   0  0  0  0  0  0  0  0  0  0  0  0
   -2.1620   16.8270   -5.0460 C   0  0  0  0  0  0  0  0  0  0  0  0
   -3.1260   15.5970   -5.1490 C   0  0  0  0  0  0  0  0  0  0  0  0
   -3.3020   14.6150   -3.9320 C   0  0  1  0  0  0  0  0  0  0  0  0
   -2.4660   14.9590   -2.7970 N   0  0  0  0  0  0  0  0  0  0  0  0
   -4.6800   14.4580   -3.4170 N   0  0  0  0  0  0  0  0  0  0  0  0
   -3.2950   15.1380   -1.6090 C   0  0  1  0  0  0  0  0  0  0  0  0
   -4.7300   14.9830   -2.0170 C   0  0  2  0  0  0  0  0  0  0  0  0
   -2.8320   14.2670   -0.5570 N   0  0  0  0  0  0  0  0  0  0  0  0
   -5.4680   14.1420   -0.9400 C   0  0  2  0  0  0  0  0  0  0  0  0
   -6.8190   14.6240   -0.7180 N   0  0  0  0  0  0  0  0  0  0  0  0
   -3.5760   14.5860    0.6410 C   0  0  0  0  0  0  0  0  0  0  0  0
   -4.9610   14.1840    0.4330 N   0  0  0  0  0  0  0  0  0  0  0  0
  2  1  1  6
  2  3  1  0
  2  4  1  0
  4  5  1  6
  3  6  1  0
  4  7  1  0
  6  7  1  0
  6  8  1  6
  7  9  1  6
  8 10  1  0
 10 11  1  0
 11 12  1  0
 12 13  1  0
 13 14  1  0
 14 15  1  0
 15 16  1  0
 17 16  1  6
 17 18  1  0
 17 19  1  0
 20 18  1  6
 21 19  1  6
 20 21  1  0
 20 22  1  0
 21 23  1  0
 23 24  1  1
 22 25  1  0
 23 26  1  0
 25 26  1  0
M  END
>  <%Rank>  (1080) 
82.366412

>  <N_hits>  (1080) 
2

>  <submitter_name>  (1080) 
nan

>  <original SMILES>  (1080) 
nan

>  <∆G_unbound>  (1080) 
0.40203

>  <∆G_bound>  (1080) 
-1.855457

>  <regarded>  (1080) 
5CMS_0_I_α,3Q6Z_0_A_δ

>  <ref_pdb>  (1080) 
nan

>  <smiles>  (1080) 
CC1OC(OCCCCCCCC2NC3NCNC(N)C3N2)C(O)C1O

>  <submitter_email>  (1080) 
nan

>  <disregarded>  (1080) 


>  <LE>  (1080) 
-0.086826

>  <submitter_institution>  (1080) 
nan

>  <ref_mols>  (1080) 
5CMS_0_I,3Q6Z_0_A

>  <N_constrained_atoms>  (1080) 
19.0

>  <ref_url>  (1080) 
nan

>  <method>  (1080) 
nan

>  <comRMSD>  (1080) 
1.26747

>  <N_unconstrained_atoms>  (1080) 
7.0

>  <∆∆G>  (1080) 
-2.257487

>  <runtime>  (1080) 
54.863904

>  <generation_date>  (1080) 
nan

$$$$
6WOJ_0_C_β-mArh-5cb5_M_1_M_β
     RDKit          3D

 10  9  0  0  0  0  0  0  0  0999 V2000
   -1.6090   20.1560   -8.1030 O   0  0  0  0  0  0  0  0  0  0  0  0
   -0.1750   19.8830   -7.3620 P   0  0  0  0  0  0  0  0  0  0  0  0
    0.0910   18.8900   -6.1520 O   0  0  0  0  0  0  0  0  0  0  0  0
    0.2960   18.9810   -8.4930 O   0  0  0  0  0  0  0  0  0  0  0  0
    1.1120   20.8840   -7.7650 O   0  0  0  0  0  0  0  0  0  0  0  0
   -1.0080   17.7700   -5.6730 P   0  0  0  0  0  0  0  0  0  0  0  0
   -0.4470   16.4850   -4.7790 O   0  0  0  0  0  0  0  0  0  0  0  0
   -1.3340   18.6190   -4.4580 O   0  0  0  0  0  0  0  0  0  0  0  0
   -2.5030   17.8230   -6.2470 N   0  0  0  0  0  0  0  0  0  0  0  0
   -2.9240   18.1580   -7.2150 O   0  0  0  0  0  0  0  0  0  0  0  0
  1  2  1  0
  2  3  1  0
  2  4  1  0
  2  5  1  0
  3  6  1  0
  6  7  1  0
  6  8  1  0
  6  9  1  0
  9 10  2  0
M  CHG  2   4  -1   8  -1
M  END
>  <%Rank>  (1081) 
82.442748

>  <N_hits>  (1081) 
2

>  <submitter_name>  (1081) 
nan

>  <original SMILES>  (1081) 
nan

>  <∆G_unbound>  (1081) 
0.205569

>  <∆G_bound>  (1081) 
-4.605943

>  <regarded>  (1081) 
6WOJ_0_C_β,mArh-5cb5_M_1_M_β

>  <ref_pdb>  (1081) 
nan

>  <smiles>  (1081) 
O=N[PH]([O-])(O)O[PH]([O-])(O)O

>  <submitter_email>  (1081) 
nan

>  <disregarded>  (1081) 


>  <LE>  (1081) 
-0.481151

>  <submitter_institution>  (1081) 
nan

>  <ref_mols>  (1081) 
6WOJ_0_C,mArh-5cb5_M_1_M

>  <N_constrained_atoms>  (1081) 
10.0

>  <ref_url>  (1081) 
nan

>  <method>  (1081) 
nan

>  <comRMSD>  (1081) 
1.422039

>  <N_unconstrained_atoms>  (1081) 
0.0

>  <∆∆G>  (1081) 
-4.811512

>  <runtime>  (1081) 
31.033921

>  <generation_date>  (1081) 
nan

$$$$
mArh-3vfq_B_0_A_β-mArh-3q6z_0_A_β
     RDKit          3D

 15 14  0  0  0  0  0  0  0  0999 V2000
   -2.3040   18.3300   -7.2950 O   0  0  0  0  0  0  0  0  0  0  0  0
   -2.0750   17.5580   -5.9210 P   0  0  0  0  0  0  0  0  0  0  0  0
   -2.8700   16.5260   -5.0410 O   0  0  0  0  0  0  0  0  0  0  0  0
   -0.5790   18.3020   -5.5850 C   0  0  0  0  0  0  0  0  0  0  0  0
   -3.2240   17.4420   -6.9380 O   0  0  0  0  0  0  0  0  0  0  0  0
   -3.9470   15.3960   -5.3240 P   0  0  0  0  0  0  0  0  0  0  0  0
    0.1220   19.1950   -6.2800 O   0  0  0  0  0  0  0  0  0  0  0  0
    0.0720   17.9900   -4.4560 O   0  0  0  0  0  0  0  0  0  0  0  0
   -3.1810   14.1850   -5.9280 O   0  0  0  0  0  0  0  0  0  0  0  0
   -4.7680   15.0840   -4.1140 O   0  0  0  0  0  0  0  0  0  0  0  0
   -4.8700   15.8820   -6.5230 O   0  0  0  0  0  0  0  0  0  0  0  0
   -0.1250   19.6940   -7.7650 P   0  0  0  0  0  0  0  0  0  0  0  0
   -1.5520   20.3910   -7.8040 O   0  0  0  0  0  0  0  0  0  0  0  0
    0.1010   18.6580   -8.8020 O   0  0  0  0  0  0  0  0  0  0  0  0
    0.8140   20.9770   -7.8300 O   0  0  0  0  0  0  0  0  0  0  0  0
  1  2  1  0
  2  3  1  0
  2  4  2  3
  2  5  1  0
  3  6  1  0
  4  7  1  0
  4  8  1  0
  6  9  1  0
  6 10  2  0
  6 11  1  0
  7 12  1  0
 12 13  1  0
 12 14  2  0
 12 15  1  0
M  END
>  <%Rank>  (1082) 
82.519084

>  <N_hits>  (1082) 
2

>  <submitter_name>  (1082) 
nan

>  <original SMILES>  (1082) 
nan

>  <∆G_unbound>  (1082) 
4.425519

>  <∆G_bound>  (1082) 
-5.161043

>  <regarded>  (1082) 
mArh-3vfq_B_0_A_β,mArh-3q6z_0_A_β

>  <ref_pdb>  (1082) 
nan

>  <smiles>  (1082) 
O=P(O)(O)OC(O)=P(O)(O)OP(=O)(O)O

>  <submitter_email>  (1082) 
nan

>  <disregarded>  (1082) 


>  <LE>  (1082) 
-0.639104

>  <submitter_institution>  (1082) 
nan

>  <ref_mols>  (1082) 
mArh-3vfq_B_0_A,mArh-3q6z_0_A

>  <N_constrained_atoms>  (1082) 
15.0

>  <ref_url>  (1082) 
nan

>  <method>  (1082) 
nan

>  <comRMSD>  (1082) 
1.648145

>  <N_unconstrained_atoms>  (1082) 
0.0

>  <∆∆G>  (1082) 
-9.586562

>  <runtime>  (1082) 
27.039706

>  <generation_date>  (1082) 
nan

$$$$
5CB5_0_D_δ-5CB5_0_R_α
     RDKit          3D

 23 25  0  0  0  0  0  0  0  0999 V2000
   -3.7600   15.5810    1.4310 N   0  0  0  0  0  0  0  0  0  0  0  0
   -2.8650   14.8310    0.5650 C   0  0  1  0  0  0  0  0  0  0  0  0
   -2.5530   15.4680   -0.8120 C   0  0  1  0  0  0  0  0  0  0  0  0
   -1.6450   14.7160    1.3600 N   0  0  0  0  0  0  0  0  0  0  0  0
   -1.3900   14.6560   -1.3070 C   0  0  1  0  0  0  0  0  0  0  0  0
   -3.4090   15.4110   -2.0390 N   0  0  0  0  0  0  0  0  0  0  0  0
   -0.4280   15.3080    0.7940 C   0  0  0  0  0  0  0  0  0  0  0  0
   -1.2060   15.0610   -2.7000 N   0  0  0  0  0  0  0  0  0  0  0  0
   -2.3720   15.8780   -3.0150 C   0  0  1  0  0  0  0  0  0  0  0  0
   -0.1740   14.8940   -0.5750 N   0  0  0  0  0  0  0  0  0  0  0  0
   -2.7460   16.0260   -4.5440 C   0  0  0  0  0  0  0  0  0  0  0  0
   -2.0280   17.0240   -5.5720 C   0  0  0  0  0  0  0  0  0  0  0  0
   -1.9540   18.6120   -5.4720 C   0  0  0  0  0  0  0  0  0  0  0  0
   -2.8570   19.4980   -6.4200 C   0  0  0  0  0  0  0  0  0  0  0  0
   -3.6120   20.5990   -5.7790 O   0  0  0  0  0  0  0  0  0  0  0  0
   -4.5670   21.3200   -6.6310 C   0  0  2  0  0  0  0  0  0  0  0  0
   -4.4950   20.8660   -7.9590 O   0  0  0  0  0  0  0  0  0  0  0  0
   -4.2930   22.8620   -6.7130 C   0  0  2  0  0  0  0  0  0  0  0  0
   -5.4370   23.7210   -6.5520 O   0  0  0  0  0  0  0  0  0  0  0  0
   -3.4410   21.6450   -8.5120 C   0  0  1  0  0  0  0  0  0  0  0  0
   -3.7230   23.0850   -8.1100 C   0  0  1  0  0  0  0  0  0  0  0  0
   -2.0840   21.1640   -8.0180 C   0  0  0  0  0  0  0  0  0  0  0  0
   -4.6640   23.7530   -8.9770 O   0  0  0  0  0  0  0  0  0  0  0  0
  2  1  1  1
  2  3  1  0
  2  4  1  0
  3  5  1  0
  3  6  1  6
  4  7  1  0
  5  8  1  6
  6  9  1  0
  8  9  1  0
  5 10  1  0
  7 10  1  0
  9 11  1  6
 11 12  1  0
 12 13  1  0
 13 14  1  0
 14 15  1  0
 16 15  1  1
 16 17  1  0
 16 18  1  0
 18 19  1  6
 17 20  1  0
 18 21  1  0
 20 21  1  0
 20 22  1  1
 21 23  1  6
M  END
>  <%Rank>  (1083) 
82.59542

>  <N_hits>  (1083) 
2

>  <submitter_name>  (1083) 
nan

>  <original SMILES>  (1083) 
nan

>  <∆G_unbound>  (1083) 
0.647194

>  <∆G_bound>  (1083) 
-6.679751

>  <regarded>  (1083) 
5CB5_0_D_δ,5CB5_0_R_α

>  <ref_pdb>  (1083) 
nan

>  <smiles>  (1083) 
CC1OC(OCCCCC2NC3NCNC(N)C3N2)C(O)C1O

>  <submitter_email>  (1083) 
nan

>  <disregarded>  (1083) 


>  <LE>  (1083) 
-0.318563

>  <submitter_institution>  (1083) 
nan

>  <ref_mols>  (1083) 
5CB5_0_D,5CB5_0_R

>  <N_constrained_atoms>  (1083) 
19.0

>  <ref_url>  (1083) 
nan

>  <method>  (1083) 
nan

>  <comRMSD>  (1083) 
1.472112

>  <N_unconstrained_atoms>  (1083) 
4.0

>  <∆∆G>  (1083) 
-7.326945

>  <runtime>  (1083) 
44.507294

>  <generation_date>  (1083) 
nan

$$$$
5CMS_0_I_α-mArh-5cms_E_5_E_γ
     RDKit          3D

 23 24  0  0  0  0  0  0  0  0999 V2000
   -2.4750   21.8190   -7.1540 C   0  0  0  0  0  0  0  0  0  0  0  0
   -3.1000   21.9520   -8.5260 C   0  0  1  0  0  0  0  0  0  0  0  0
   -4.5070   22.0820   -8.4770 O   0  0  0  0  0  0  0  0  0  0  0  0
   -2.5810   23.1360   -9.2660 C   0  0  1  0  0  0  0  0  0  0  0  0
   -1.3530   22.5860   -9.5780 O   0  0  0  0  0  0  0  0  0  0  0  0
   -4.8790   22.8150   -9.6490 C   0  0  2  0  0  0  0  0  0  0  0  0
   -3.6170   23.2150  -10.3970 C   0  0  2  0  0  0  0  0  0  0  0  0
   -5.6270   23.9560   -9.2970 O   0  0  0  0  0  0  0  0  0  0  0  0
   -3.5020   22.2380  -11.4420 O   0  0  0  0  0  0  0  0  0  0  0  0
   -1.4820   21.2230   -9.2050 C   0  0  0  0  0  0  0  0  0  0  0  0
   -0.2730   20.7860   -8.4320 C   0  0  0  0  0  0  0  0  0  0  0  0
   -0.2360   19.3070   -8.0680 C   0  0  0  0  0  0  0  0  0  0  0  0
    0.3460   19.3540   -6.7000 C   0  0  0  0  0  0  0  0  0  0  0  0
    1.0720   18.1900   -6.0910 C   0  0  0  0  0  0  0  0  0  0  0  0
    0.4990   17.7490   -4.7650 C   0  0  0  0  0  0  0  0  0  0  0  0
   -0.2290   16.4260   -4.8410 C   0  0  0  0  0  0  0  0  0  0  0  0
    0.5370   15.2030   -4.3740 C   0  0  1  0  0  0  0  0  0  0  0  0
    0.2850   14.9880   -2.9830 O   0  0  0  0  0  0  0  0  0  0  0  0
    0.1900   13.8850   -5.0480 C   0  0  1  0  0  0  0  0  0  0  0  0
    1.2170   12.9090   -4.9520 O   0  0  0  0  0  0  0  0  0  0  0  0
   -0.8900   14.1720   -2.9160 C   0  0  0  0  0  0  0  0  0  0  0  0
   -1.0560   13.4780   -4.2670 C   0  0  2  0  0  0  0  0  0  0  0  0
   -1.1610   12.0640   -4.1630 O   0  0  0  0  0  0  0  0  0  0  0  0
  2  1  1  1
  2  3  1  0
  2  4  1  0
  4  5  1  6
  3  6  1  0
  4  7  1  0
  6  7  1  0
  6  8  1  1
  7  9  1  6
  5 10  1  0
 10 11  1  0
 11 12  1  0
 12 13  1  0
 13 14  1  0
 14 15  1  0
 15 16  1  0
 17 16  1  6
 17 18  1  0
 17 19  1  0
 19 20  1  1
 18 21  1  0
 19 22  1  0
 21 22  1  0
 22 23  1  1
M  END
>  <%Rank>  (1084) 
82.671756

>  <N_hits>  (1084) 
2

>  <submitter_name>  (1084) 
nan

>  <original SMILES>  (1084) 
nan

>  <∆G_unbound>  (1084) 
0.438128

>  <∆G_bound>  (1084) 
-6.950706

>  <regarded>  (1084) 
5CMS_0_I_α,mArh-5cms_E_5_E_γ

>  <ref_pdb>  (1084) 
nan

>  <smiles>  (1084) 
CC1OC(O)C(O)C1OCCCCCCCC1OCC(O)C1O

>  <submitter_email>  (1084) 
nan

>  <disregarded>  (1084) 


>  <LE>  (1084) 
-0.321254

>  <submitter_institution>  (1084) 
nan

>  <ref_mols>  (1084) 
5CMS_0_I,mArh-5cms_E_5_E

>  <N_constrained_atoms>  (1084) 
17.0

>  <ref_url>  (1084) 
nan

>  <method>  (1084) 
nan

>  <comRMSD>  (1084) 
1.360673

>  <N_unconstrained_atoms>  (1084) 
6.0

>  <∆∆G>  (1084) 
-7.388834

>  <runtime>  (1084) 
40.583767

>  <generation_date>  (1084) 
nan

$$$$
3VFQ_0_A_β-mArh-5cms_N_13_N_γ
     RDKit          3D

 18 18  0  0  0  0  0  0  0  0999 V2000
   -3.1490   19.6720   -6.4510 O   0  0  0  0  0  0  0  0  0  0  0  0
   -2.1190   18.4370   -6.4690 P   0  0  0  0  0  0  0  0  0  0  0  0
   -2.5620   17.6450   -5.2520 O   0  0  0  0  0  0  0  0  0  0  0  0
   -0.6010   18.5530   -6.0730 O   0  0  0  0  0  0  0  0  0  0  0  0
   -2.7110   17.0480   -7.1900 O   0  0  0  0  0  0  0  0  0  0  0  0
   -3.0850   16.1520   -5.2360 P   0  0  0  0  0  0  0  0  0  0  0  0
   -0.0430   17.9360   -4.9750 C   0  0  0  0  0  0  0  0  0  0  0  0
   -3.5390   14.7020   -5.0540 O   0  0  0  0  0  0  0  0  0  0  0  0
   -3.4960   16.3180   -3.6590 O   0  0  0  0  0  0  0  0  0  0  0  0
   -4.2750   16.3830   -6.3400 O   0  0  0  0  0  0  0  0  0  0  0  0
    0.7460   16.8550   -5.6030 C   0  0  0  0  0  0  0  0  0  0  0  0
    1.0360   15.6270   -4.8390 C   0  0  1  0  0  0  0  0  0  0  0  0
    0.4260   15.8520   -3.6010 O   0  0  0  0  0  0  0  0  0  0  0  0
    0.2000   14.4260   -5.3210 C   0  0  1  0  0  0  0  0  0  0  0  0
    0.9730   13.6840   -6.2140 O   0  0  0  0  0  0  0  0  0  0  0  0
    0.3800   14.5920   -2.9910 C   0  0  0  0  0  0  0  0  0  0  0  0
    0.1220   13.5820   -4.0750 C   0  0  2  0  0  0  0  0  0  0  0  0
    1.0990   12.6020   -4.1550 O   0  0  0  0  0  0  0  0  0  0  0  0
  1  2  1  0
  2  3  1  0
  2  4  1  0
  2  5  1  0
  3  6  1  0
  4  7  1  0
  6  8  1  0
  6  9  1  0
  6 10  1  0
  7 11  1  0
 12 11  1  6
 12 13  1  0
 12 14  1  0
 14 15  1  6
 13 16  1  0
 14 17  1  0
 16 17  1  0
 17 18  1  6
M  CHG  1   9  -1
M  END
>  <%Rank>  (1085) 
82.748092

>  <N_hits>  (1085) 
2

>  <submitter_name>  (1085) 
nan

>  <original SMILES>  (1085) 
nan

>  <∆G_unbound>  (1085) 
0.660988

>  <∆G_bound>  (1085) 
-0.433208

>  <regarded>  (1085) 
3VFQ_0_A_β,mArh-5cms_N_13_N_γ

>  <ref_pdb>  (1085) 
nan

>  <smiles>  (1085) 
[O-][PH](O)(O)O[PH](O)(O)OCCC1OCC(O)C1O

>  <submitter_email>  (1085) 
nan

>  <disregarded>  (1085) 


>  <LE>  (1085) 
-0.060789

>  <submitter_institution>  (1085) 
nan

>  <ref_mols>  (1085) 
3VFQ_0_A,mArh-5cms_N_13_N

>  <N_constrained_atoms>  (1085) 
17.0

>  <ref_url>  (1085) 
nan

>  <method>  (1085) 
nan

>  <comRMSD>  (1085) 
1.378551

>  <N_unconstrained_atoms>  (1085) 
1.0

>  <∆∆G>  (1085) 
-1.094196

>  <runtime>  (1085) 
40.803033

>  <generation_date>  (1085) 
nan

$$$$
6WOJ_0_A_δ-6MEA_0_A_α
     RDKit          3D

 24 26  0  0  0  0  0  0  0  0999 V2000
   -4.1300   15.1700    1.1540 N   0  0  0  0  0  0  0  0  0  0  0  0
   -2.9700   14.4950    0.6010 C   0  0  1  0  0  0  0  0  0  0  0  0
   -2.7980   14.5690   -0.9520 C   0  0  2  0  0  0  0  0  0  0  0  0
   -1.8590   15.0580    1.3380 N   0  0  0  0  0  0  0  0  0  0  0  0
   -1.3990   14.0530   -1.2740 C   0  0  1  0  0  0  0  0  0  0  0  0
   -2.8210   15.8140   -1.7540 N   0  0  0  0  0  0  0  0  0  0  0  0
   -0.6000   14.4340    0.9740 C   0  0  0  0  0  0  0  0  0  0  0  0
   -1.2220   14.3860   -2.6870 N   0  0  0  0  0  0  0  0  0  0  0  0
   -2.2800   15.3450   -3.0600 C   0  0  2  0  0  0  0  0  0  0  0  0
   -0.3490   14.6130   -0.4530 N   0  0  0  0  0  0  0  0  0  0  0  0
   -1.7850   16.5030   -4.0190 C   0  0  0  0  0  0  0  0  0  0  0  0
   -2.5420   16.7270   -5.3620 C   0  0  0  0  0  0  0  0  0  0  0  0
   -2.3800   18.0730   -6.1850 C   0  0  0  0  0  0  0  0  0  0  0  0
   -2.0320   19.3850   -5.4230 C   0  0  0  0  0  0  0  0  0  0  0  0
   -2.8850   20.7110   -5.6210 C   0  0  0  0  0  0  0  0  0  0  0  0
   -4.3230   20.6430   -5.7990 O   0  0  0  0  0  0  0  0  0  0  0  0
   -4.8640   21.5480   -6.7910 C   0  0  2  0  0  0  0  0  0  0  0  0
   -4.4340   21.0800   -8.0650 O   0  0  0  0  0  0  0  0  0  0  0  0
   -4.3630   23.0150   -6.6310 C   0  0  2  0  0  0  0  0  0  0  0  0
   -5.4220   23.9810   -6.4070 O   0  0  0  0  0  0  0  0  0  0  0  0
   -3.3970   21.9490   -8.5240 C   0  0  1  0  0  0  0  0  0  0  0  0
   -3.7600   23.3280   -8.0070 C   0  0  1  0  0  0  0  0  0  0  0  0
   -2.0260   21.4660   -8.0690 C   0  0  0  0  0  0  0  0  0  0  0  0
   -4.6820   23.9720   -8.8940 O   0  0  0  0  0  0  0  0  0  0  0  0
  2  1  1  6
  2  3  1  0
  2  4  1  0
  3  5  1  0
  3  6  1  1
  4  7  1  0
  5  8  1  6
  6  9  1  0
  8  9  1  0
  5 10  1  0
  7 10  1  0
  9 11  1  1
 11 12  1  0
 12 13  1  0
 13 14  1  0
 14 15  1  0
 15 16  1  0
 17 16  1  1
 17 18  1  0
 17 19  1  0
 19 20  1  6
 18 21  1  0
 19 22  1  0
 21 22  1  0
 21 23  1  1
 22 24  1  6
M  END
>  <%Rank>  (1086) 
82.824427

>  <N_hits>  (1086) 
2

>  <submitter_name>  (1086) 
nan

>  <original SMILES>  (1086) 
nan

>  <∆G_unbound>  (1086) 
0.335171

>  <∆G_bound>  (1086) 
-9.829508

>  <regarded>  (1086) 
6WOJ_0_A_δ,6MEA_0_A_α

>  <ref_pdb>  (1086) 
nan

>  <smiles>  (1086) 
CC1OC(OCCCCCC2NC3NCNC(N)C3N2)C(O)C1O

>  <submitter_email>  (1086) 
nan

>  <disregarded>  (1086) 


>  <LE>  (1086) 
-0.423528

>  <submitter_institution>  (1086) 
nan

>  <ref_mols>  (1086) 
6WOJ_0_A,6MEA_0_A

>  <N_constrained_atoms>  (1086) 
19.0

>  <ref_url>  (1086) 
nan

>  <method>  (1086) 
nan

>  <comRMSD>  (1086) 
1.499689

>  <N_unconstrained_atoms>  (1086) 
5.0

>  <∆∆G>  (1086) 
-10.164679

>  <runtime>  (1086) 
42.795046

>  <generation_date>  (1086) 
nan

$$$$
5MQX_0_A_β-mArh-EU0815_0_A_β
     RDKit          3D

 16 16  0  0  0  0  0  0  0  0999 V2000
   -2.3220   19.2980   -6.7750 O   0  0  0  0  0  0  0  0  0  0  0  0
   -2.0440   18.3240   -5.5960 P   0  0  0  0  0  0  0  0  0  0  0  0
   -2.2850   17.3500   -4.3990 O   0  0  0  0  0  0  0  0  0  0  0  0
   -2.7010   19.5380   -4.6810 O   0  0  0  0  0  0  0  0  0  0  0  0
   -0.4500   18.3930   -5.5580 O   0  0  0  0  0  0  0  0  0  0  0  0
   -3.1440   15.9300   -4.1850 P   0  0  0  0  0  0  0  0  0  0  0  0
   -2.0140   15.0240   -4.6410 O   0  0  0  0  0  0  0  0  0  0  0  0
   -3.3680   15.0610   -2.7270 O   0  0  0  0  0  0  0  0  0  0  0  0
   -4.1380   15.4380   -5.4690 O   0  0  0  0  0  0  0  0  0  0  0  0
   -4.0990   15.0480   -1.5260 C   0  0  0  0  0  0  0  0  0  0  0  0
   -3.4420   14.9020   -0.3090 C   0  0  0  0  0  0  0  0  0  0  0  0
   -5.4910   15.1550   -1.4480 C   0  0  0  0  0  0  0  0  0  0  0  0
   -6.2910   15.3000   -2.5340 F   0  0  0  0  0  0  0  0  0  0  0  0
   -4.0820   14.8580    0.9120 C   0  0  0  0  0  0  0  0  0  0  0  0
   -6.1650   15.1140   -0.2450 C   0  0  0  0  0  0  0  0  0  0  0  0
   -5.4470   14.9650    0.9200 C   0  0  0  0  0  0  0  0  0  0  0  0
  1  2  1  0
  2  3  1  0
  2  4  1  0
  2  5  1  0
  3  6  1  0
  6  7  1  0
  6  8  1  0
  6  9  1  0
  8 10  1  0
 10 11  2  0
 10 12  1  0
 12 13  1  0
 11 14  1  0
 12 15  2  0
 14 16  2  0
 15 16  1  0
M  CHG  1   4  -1
M  END
>  <%Rank>  (1087) 
82.900763

>  <N_hits>  (1087) 
2

>  <submitter_name>  (1087) 
nan

>  <original SMILES>  (1087) 
nan

>  <∆G_unbound>  (1087) 
0.759706

>  <∆G_bound>  (1087) 
-1.96039

>  <regarded>  (1087) 
5MQX_0_A_β,mArh-EU0815_0_A_β

>  <ref_pdb>  (1087) 
nan

>  <smiles>  (1087) 
[O-][PH](O)(O)O[PH](O)(O)Oc1ccccc1F

>  <submitter_email>  (1087) 
nan

>  <disregarded>  (1087) 


>  <LE>  (1087) 
-0.170006

>  <submitter_institution>  (1087) 
nan

>  <ref_mols>  (1087) 
5MQX_0_A,mArh-EU0815_0_A

>  <N_constrained_atoms>  (1087) 
16.0

>  <ref_url>  (1087) 
nan

>  <method>  (1087) 
nan

>  <comRMSD>  (1087) 
1.44705

>  <N_unconstrained_atoms>  (1087) 
0.0

>  <∆∆G>  (1087) 
-2.720096

>  <runtime>  (1087) 
28.581368

>  <generation_date>  (1087) 
nan

$$$$
mArh-6fx_7_0A_β-mArh-5cms_A_0_A_α
     RDKit          3D

 17 17  0  0  0  0  0  0  0  0999 V2000
   -1.7190   21.3860   -7.4730 O   0  0  0  0  0  0  0  0  0  0  0  0
   -0.5970   20.2600   -7.7940 P   0  0  1  0  0  0  0  0  0  0  0  0
   -0.3910   19.3360   -6.5320 O   0  0  0  0  0  0  0  0  0  0  0  0
   -2.8160   21.6300   -8.3270 C   0  0  1  0  0  0  0  0  0  0  0  0
   -0.7780   19.3580   -8.9510 O   0  0  0  0  0  0  0  0  0  0  0  0
    0.7750   21.0770   -7.8650 O   0  0  0  0  0  0  0  0  0  0  0  0
   -3.8990   22.4330   -7.8780 O   0  0  0  0  0  0  0  0  0  0  0  0
   -2.3940   22.2890   -9.5950 C   0  0  1  0  0  0  0  0  0  0  0  0
   -1.6130   18.5340   -5.9200 P   0  0  0  0  0  0  0  0  0  0  0  0
   -2.9220   21.6170  -10.7170 O   0  0  0  0  0  0  0  0  0  0  0  0
   -4.3280   23.0240   -9.0810 C   0  0  2  0  0  0  0  0  0  0  0  0
   -3.0470   23.6310   -9.4820 C   0  0  2  0  0  0  0  0  0  0  0  0
   -1.0540   17.0760   -5.6320 O   0  0  0  0  0  0  0  0  0  0  0  0
   -2.2780   19.2190   -4.8000 O   0  0  0  0  0  0  0  0  0  0  0  0
   -2.5920   18.2310   -7.1320 O   0  0  0  0  0  0  0  0  0  0  0  0
   -5.3100   23.9960   -8.8690 O   0  0  0  0  0  0  0  0  0  0  0  0
   -3.2930   24.3570  -10.6990 O   0  0  0  0  0  0  0  0  0  0  0  0
  1  2  1  0
  2  3  1  0
  4  1  1  1
  2  5  2  0
  2  6  1  6
  4  7  1  0
  4  8  1  0
  3  9  1  0
  8 10  1  6
  7 11  1  0
  8 12  1  0
 11 12  1  0
  9 13  1  0
  9 14  2  0
  9 15  1  0
 11 16  1  1
 12 17  1  6
M  END
>  <%Rank>  (1088) 
82.977099

>  <N_hits>  (1088) 
2

>  <submitter_name>  (1088) 
nan

>  <original SMILES>  (1088) 
nan

>  <∆G_unbound>  (1088) 
1.974322

>  <∆G_bound>  (1088) 
-4.162975

>  <regarded>  (1088) 
mArh-6fx_7_0A_β,mArh-5cms_A_0_A_α

>  <ref_pdb>  (1088) 
nan

>  <smiles>  (1088) 
O=P(O)(O)OP(=O)(O)OC1OC(O)C(O)C1O

>  <submitter_email>  (1088) 
nan

>  <disregarded>  (1088) 


>  <LE>  (1088) 
-0.361017

>  <submitter_institution>  (1088) 
nan

>  <ref_mols>  (1088) 
mArh-6fx_7_0A,mArh-5cms_A_0_A

>  <N_constrained_atoms>  (1088) 
17.0

>  <ref_url>  (1088) 
nan

>  <method>  (1088) 
nan

>  <comRMSD>  (1088) 
1.572227

>  <N_unconstrained_atoms>  (1088) 
0.0

>  <∆∆G>  (1088) 
-6.137296

>  <runtime>  (1088) 
34.387615

>  <generation_date>  (1088) 
nan

$$$$
3Q6Z_0_A_δ-6WOJ_0_A_α
     RDKit          3D

 23 25  0  0  0  0  0  0  0  0999 V2000
   -6.2940   15.7910   -1.1580 N   0  0  0  0  0  0  0  0  0  0  0  0
   -5.1530   14.9300   -1.3910 C   0  0  1  0  0  0  0  0  0  0  0  0
   -3.9220   15.5220   -2.1530 C   0  0  1  0  0  0  0  0  0  0  0  0
   -4.8150   14.5250   -0.0080 N   0  0  0  0  0  0  0  0  0  0  0  0
   -3.0250   14.4240   -1.6840 C   0  0  1  0  0  0  0  0  0  0  0  0
   -3.6520   15.5290   -3.6860 N   0  0  0  0  0  0  0  0  0  0  0  0
   -3.5160   14.9920    0.5220 C   0  0  0  0  0  0  0  0  0  0  0  0
   -2.5710   16.4690   -4.2500 C   0  0  0  0  0  0  0  0  0  0  0  0
   -2.0920   14.2110   -2.7550 N   0  0  0  0  0  0  0  0  0  0  0  0
   -3.0660   14.2210   -3.8380 C   0  0  0  0  0  0  0  0  0  0  0  0
   -2.4350   14.6430   -0.3970 N   0  0  0  0  0  0  0  0  0  0  0  0
   -2.7900   17.0550   -5.7110 C   0  0  0  0  0  0  0  0  0  0  0  0
   -2.4590   18.5360   -6.2830 C   0  0  0  0  0  0  0  0  0  0  0  0
   -2.6210   19.9470   -5.5710 C   0  0  0  0  0  0  0  0  0  0  0  0
   -3.9460   20.6460   -5.5530 O   0  0  0  0  0  0  0  0  0  0  0  0
   -4.3330   21.5090   -6.6710 C   0  0  2  0  0  0  0  0  0  0  0  0
   -3.6000   21.0540   -7.8000 O   0  0  0  0  0  0  0  0  0  0  0  0
   -4.0800   23.0440   -6.5160 C   0  0  2  0  0  0  0  0  0  0  0  0
   -5.2930   23.8330   -6.4200 O   0  0  0  0  0  0  0  0  0  0  0  0
   -2.7670   22.1060   -8.2700 C   0  0  1  0  0  0  0  0  0  0  0  0
   -3.4030   23.4270   -7.8340 C   0  0  1  0  0  0  0  0  0  0  0  0
   -1.3400   21.8820   -7.8100 C   0  0  0  0  0  0  0  0  0  0  0  0
   -4.3850   23.8910   -8.7830 O   0  0  0  0  0  0  0  0  0  0  0  0
  2  1  1  1
  2  3  1  0
  2  4  1  0
  3  5  1  0
  3  6  1  6
  4  7  1  0
  6  8  1  0
  5  9  1  6
  6 10  1  0
  9 10  1  0
  5 11  1  0
  7 11  1  0
  8 12  1  0
 12 13  1  0
 13 14  1  0
 14 15  1  0
 16 15  1  1
 16 17  1  0
 16 18  1  0
 18 19  1  6
 17 20  1  0
 18 21  1  0
 20 21  1  0
 20 22  1  1
 21 23  1  6
M  END
>  <%Rank>  (1089) 
83.053435

>  <N_hits>  (1089) 
2

>  <submitter_name>  (1089) 
nan

>  <original SMILES>  (1089) 
nan

>  <∆G_unbound>  (1089) 
0.629707

>  <∆G_bound>  (1089) 
-7.934713

>  <regarded>  (1089) 
3Q6Z_0_A_δ,6WOJ_0_A_α

>  <ref_pdb>  (1089) 
nan

>  <smiles>  (1089) 
CC1OC(OCCCCN2CNC3NCNC(N)C32)C(O)C1O

>  <submitter_email>  (1089) 
nan

>  <disregarded>  (1089) 


>  <LE>  (1089) 
-0.372366

>  <submitter_institution>  (1089) 
nan

>  <ref_mols>  (1089) 
3Q6Z_0_A,6WOJ_0_A

>  <N_constrained_atoms>  (1089) 
19.0

>  <ref_url>  (1089) 
nan

>  <method>  (1089) 
nan

>  <comRMSD>  (1089) 
1.519096

>  <N_unconstrained_atoms>  (1089) 
4.0

>  <∆∆G>  (1089) 
-8.56442

>  <runtime>  (1089) 
41.969644

>  <generation_date>  (1089) 
nan

$$$$
mArh-x0631_0_A_α-mArh-6fx_7_0A_γ
     RDKit          3D

 21 22  0  0  0  0  0  0  0  0999 V2000
    0.3940    9.8640  -11.9170 N   0  0  0  0  0  0  0  0  0  0  0  0
    1.7650    9.6710  -11.5240 C   0  0  2  0  0  0  0  0  0  0  0  0
    2.1130    8.3630  -11.8960 O   0  0  0  0  0  0  0  0  0  0  0  0
    1.6310    9.6610   -9.9620 C   0  0  0  0  0  0  0  0  0  0  0  0
    2.6900   10.6530  -12.3680 C   0  0  1  0  0  0  0  0  0  0  0  0
    1.3210   10.8970   -9.0930 C   0  0  0  0  0  0  0  0  0  0  0  0
    3.8540    9.9390  -12.8700 O   0  0  0  0  0  0  0  0  0  0  0  0
    2.1020   11.2890  -13.6230 C   0  0  0  0  0  0  0  0  0  0  0  0
    0.5640   10.7660   -7.7510 C   0  0  0  0  0  0  0  0  0  0  0  0
    4.1490   10.3520  -14.2120 C   0  0  0  0  0  0  0  0  0  0  0  0
    3.3200   11.5780  -14.4610 C   0  0  0  0  0  0  0  0  0  0  0  0
    0.8820   11.8830   -6.7250 C   0  0  0  0  0  0  0  0  0  0  0  0
    0.2680   11.9130   -5.3290 C   0  0  0  0  0  0  0  0  0  0  0  0
    0.6660   13.1170   -4.6370 O   0  0  0  0  0  0  0  0  0  0  0  0
    0.0340   14.3270   -5.1390 C   0  0  2  0  0  0  0  0  0  0  0  0
    0.6170   15.5980   -4.4850 C   0  0  1  0  0  0  0  0  0  0  0  0
   -1.3830   14.3550   -4.5970 C   0  0  1  0  0  0  0  0  0  0  0  0
   -2.0420   13.1070   -4.6990 O   0  0  0  0  0  0  0  0  0  0  0  0
    0.4200   16.8750   -5.3050 C   0  0  0  0  0  0  0  0  0  0  0  0
   -1.1200   14.7730   -3.1650 C   0  0  0  0  0  0  0  0  0  0  0  0
   -0.1030   15.7810   -3.2400 O   0  0  0  0  0  0  0  0  0  0  0  0
  2  1  1  6
  2  3  1  0
  2  4  1  0
  2  5  1  0
  4  6  1  0
  5  7  1  0
  5  8  1  6
  6  9  1  0
  7 10  1  0
  8 11  1  0
 10 11  1  0
  9 12  1  0
 12 13  1  0
 13 14  1  0
 15 14  1  1
 15 16  1  0
 15 17  1  0
 17 18  1  1
 16 19  1  6
 17 20  1  0
 16 21  1  0
 20 21  1  0
M  END
>  <%Rank>  (1090) 
83.129771

>  <N_hits>  (1090) 
2

>  <submitter_name>  (1090) 
nan

>  <original SMILES>  (1090) 
nan

>  <∆G_unbound>  (1090) 
1.406774

>  <∆G_bound>  (1090) 
-6.456313

>  <regarded>  (1090) 
mArh-x0631_0_A_α,mArh-6fx_7_0A_γ

>  <ref_pdb>  (1090) 
nan

>  <smiles>  (1090) 
CC1OCC(O)C1OCCCCCC(N)(O)C1CCCO1

>  <submitter_email>  (1090) 
nan

>  <disregarded>  (1090) 


>  <LE>  (1090) 
-0.374433

>  <submitter_institution>  (1090) 
nan

>  <ref_mols>  (1090) 
mArh-x0631_0_A,mArh-6fx_7_0A

>  <N_constrained_atoms>  (1090) 
16.0

>  <ref_url>  (1090) 
nan

>  <method>  (1090) 
nan

>  <comRMSD>  (1090) 
1.424881

>  <N_unconstrained_atoms>  (1090) 
5.0

>  <∆∆G>  (1090) 
-7.863087

>  <runtime>  (1090) 
28.029124

>  <generation_date>  (1090) 
nan

$$$$
5CMS_0_I_α-5CMS_0_Q_γ
     RDKit          3D

 23 24  0  0  0  0  0  0  0  0999 V2000
   -2.5670   21.4200   -7.4480 C   0  0  0  0  0  0  0  0  0  0  0  0
   -2.9700   21.7700   -8.8660 C   0  0  1  0  0  0  0  0  0  0  0  0
   -4.3940   21.6530   -8.9620 O   0  0  0  0  0  0  0  0  0  0  0  0
   -2.6840   23.1950   -9.2280 C   0  0  1  0  0  0  0  0  0  0  0  0
   -1.2970   23.3020   -9.4470 O   0  0  0  0  0  0  0  0  0  0  0  0
   -4.8500   22.7650   -9.7500 C   0  0  2  0  0  0  0  0  0  0  0  0
   -3.6220   23.3000  -10.4360 C   0  0  2  0  0  0  0  0  0  0  0  0
   -5.4540   23.7510   -8.9450 O   0  0  0  0  0  0  0  0  0  0  0  0
   -3.4740   22.3480  -11.4950 O   0  0  0  0  0  0  0  0  0  0  0  0
   -0.5570   22.7850   -8.3350 C   0  0  0  0  0  0  0  0  0  0  0  0
   -0.3210   21.2920   -8.5780 C   0  0  0  0  0  0  0  0  0  0  0  0
   -0.6260   20.3040   -7.4540 C   0  0  0  0  0  0  0  0  0  0  0  0
    0.6130   19.4900   -7.1650 C   0  0  0  0  0  0  0  0  0  0  0  0
    0.6360   18.7530   -5.8320 C   0  0  0  0  0  0  0  0  0  0  0  0
    0.3770   17.3040   -5.9790 C   0  0  0  0  0  0  0  0  0  0  0  0
   -0.1930   16.5730   -4.7950 C   0  0  0  0  0  0  0  0  0  0  0  0
    0.5110   15.3030   -4.3470 C   0  0  1  0  0  0  0  0  0  0  0  0
    0.2050   15.0700   -2.9680 O   0  0  0  0  0  0  0  0  0  0  0  0
    0.1260   14.0030   -5.0400 C   0  0  1  0  0  0  0  0  0  0  0  0
    1.0530   12.9480   -4.8220 O   0  0  0  0  0  0  0  0  0  0  0  0
   -0.9810   14.2610   -2.9470 C   0  0  0  0  0  0  0  0  0  0  0  0
   -1.2090   13.7320   -4.3610 C   0  0  2  0  0  0  0  0  0  0  0  0
   -1.5510   12.3520   -4.4070 O   0  0  0  0  0  0  0  0  0  0  0  0
  2  1  1  1
  2  3  1  0
  2  4  1  0
  4  5  1  6
  3  6  1  0
  4  7  1  0
  6  7  1  0
  6  8  1  1
  7  9  1  6
  5 10  1  0
 10 11  1  0
 11 12  1  0
 12 13  1  0
 13 14  1  0
 14 15  1  0
 15 16  1  0
 17 16  1  6
 17 18  1  0
 17 19  1  0
 19 20  1  1
 18 21  1  0
 19 22  1  0
 21 22  1  0
 22 23  1  1
M  END
>  <%Rank>  (1091) 
83.206107

>  <N_hits>  (1091) 
2

>  <submitter_name>  (1091) 
nan

>  <original SMILES>  (1091) 
nan

>  <∆G_unbound>  (1091) 
0.438128

>  <∆G_bound>  (1091) 
-7.830664

>  <regarded>  (1091) 
5CMS_0_I_α,5CMS_0_Q_γ

>  <ref_pdb>  (1091) 
nan

>  <smiles>  (1091) 
CC1OC(O)C(O)C1OCCCCCCCC1OCC(O)C1O

>  <submitter_email>  (1091) 
nan

>  <disregarded>  (1091) 


>  <LE>  (1091) 
-0.359513

>  <submitter_institution>  (1091) 
nan

>  <ref_mols>  (1091) 
5CMS_0_I,5CMS_0_Q

>  <N_constrained_atoms>  (1091) 
17.0

>  <ref_url>  (1091) 
nan

>  <method>  (1091) 
nan

>  <comRMSD>  (1091) 
1.42731

>  <N_unconstrained_atoms>  (1091) 
6.0

>  <∆∆G>  (1091) 
-8.268792

>  <runtime>  (1091) 
27.877769

>  <generation_date>  (1091) 
nan

$$$$
mArh-3vfq_B_0_A_β-3EW5_0_C_α
     RDKit          3D

 18 17  0  0  0  0  0  0  0  0999 V2000
   -3.2150   19.5880   -6.4930 O   0  0  0  0  0  0  0  0  0  0  0  0
   -2.2240   18.2500   -6.2170 P   0  0  0  0  0  0  0  0  0  0  0  0
   -2.5500   17.3860   -4.8290 O   0  0  0  0  0  0  0  0  0  0  0  0
   -0.8430   18.7950   -6.4190 N   0  0  0  0  0  0  0  0  0  0  0  0
   -2.7410   17.1010   -7.2890 O   0  0  0  0  0  0  0  0  0  0  0  0
   -3.3950   15.9620   -5.3090 P   0  0  0  0  0  0  0  0  0  0  0  0
   -0.2250   19.7030   -7.6420 P   0  0  0  0  0  0  0  0  0  0  0  0
   -2.4360   14.6860   -5.7760 O   0  0  0  0  0  0  0  0  0  0  0  0
   -4.4360   16.2480   -6.3450 O   0  0  0  0  0  0  0  0  0  0  0  0
   -4.2660   15.3680   -3.9990 O   0  0  0  0  0  0  0  0  0  0  0  0
   -1.5830   20.3540   -8.0510 O   0  0  0  0  0  0  0  0  0  0  0  0
    0.4260   21.1960   -7.5040 O   0  0  0  0  0  0  0  0  0  0  0  0
    0.0680   18.8330   -9.0130 O   0  0  0  0  0  0  0  0  0  0  0  0
   -2.1500   21.4510   -7.4170 C   0  0  0  0  0  0  0  0  0  0  0  0
   -3.6150   21.7520   -7.7510 C   0  0  2  0  0  0  0  0  0  0  0  0
   -3.9050   23.0530   -8.4220 C   0  0  0  0  0  0  0  0  0  0  0  0
   -4.3770   21.8020   -6.5760 O   0  0  0  0  0  0  0  0  0  0  0  0
   -4.5660   22.7160   -9.6430 O   0  0  0  0  0  0  0  0  0  0  0  0
  1  2  1  0
  2  3  1  0
  2  4  2  3
  2  5  1  0
  3  6  1  0
  4  7  1  0
  6  8  1  0
  6  9  2  0
  6 10  1  0
  7 11  1  0
  7 12  1  0
  7 13  1  0
 11 14  1  0
 14 15  1  0
 15 16  1  0
 15 17  1  1
 16 18  1  0
M  CHG  1  13  -1
M  END
>  <%Rank>  (1092) 
83.282443

>  <N_hits>  (1092) 
2

>  <submitter_name>  (1092) 
nan

>  <original SMILES>  (1092) 
nan

>  <∆G_unbound>  (1092) 
1.214234

>  <∆G_bound>  (1092) 
-2.80802

>  <regarded>  (1092) 
mArh-3vfq_B_0_A_β,3EW5_0_C_α

>  <ref_pdb>  (1092) 
nan

>  <smiles>  (1092) 
O=P(O)(O)OP(O)(O)=N[PH]([O-])(O)OC[C@@H](O)CO

>  <submitter_email>  (1092) 
nan

>  <disregarded>  (1092) 


>  <LE>  (1092) 
-0.223459

>  <submitter_institution>  (1092) 
nan

>  <ref_mols>  (1092) 
mArh-3vfq_B_0_A,3EW5_0_C

>  <N_constrained_atoms>  (1092) 
18.0

>  <ref_url>  (1092) 
nan

>  <method>  (1092) 
nan

>  <comRMSD>  (1092) 
1.558718

>  <N_unconstrained_atoms>  (1092) 
0.0

>  <∆∆G>  (1092) 
-4.022254

>  <runtime>  (1092) 
34.634799

>  <generation_date>  (1092) 
nan

$$$$
5CMS_0_J_α-mArh-5cms_E_5_E_β
     RDKit          3D

 17 17  0  0  0  0  0  0  0  0999 V2000
   -1.2860   22.9150   -7.3990 C   0  0  0  0  0  0  0  0  0  0  0  0
   -1.3590   23.2080   -8.7930 C   0  0  1  0  0  0  0  0  0  0  0  0
   -0.9950   21.9830   -9.3570 O   0  0  0  0  0  0  0  0  0  0  0  0
   -2.7260   23.5950   -9.3290 C   0  0  2  0  0  0  0  0  0  0  0  0
   -3.5820   24.1930   -8.4180 O   0  0  0  0  0  0  0  0  0  0  0  0
   -2.2060   21.2760   -9.4150 C   0  0  2  0  0  0  0  0  0  0  0  0
   -3.3140   22.2950   -9.7800 C   0  0  1  0  0  0  0  0  0  0  0  0
   -2.2340   20.5960   -8.1650 O   0  0  0  0  0  0  0  0  0  0  0  0
   -4.5800   22.1430   -9.1680 O   0  0  0  0  0  0  0  0  0  0  0  0
   -0.8590   19.7840   -7.7610 P   0  0  2  0  0  0  0  0  0  0  0  0
   -1.0320   18.3320   -7.1280 O   0  0  0  0  0  0  0  0  0  0  0  0
    0.3220   20.5980   -7.3890 O   0  0  0  0  0  0  0  0  0  0  0  0
   -0.3480   19.0820   -9.0750 O   0  0  0  0  0  0  0  0  0  0  0  0
   -1.9380   17.8060   -5.9670 P   0  0  0  0  0  0  0  0  0  0  0  0
   -0.9440   17.0100   -5.0130 O   0  0  0  0  0  0  0  0  0  0  0  0
   -3.1400   17.0410   -6.3650 O   0  0  0  0  0  0  0  0  0  0  0  0
   -2.2130   19.0780   -5.0440 O   0  0  0  0  0  0  0  0  0  0  0  0
  2  1  1  1
  2  3  1  0
  2  4  1  0
  4  5  1  1
  3  6  1  0
  4  7  1  0
  6  7  1  0
  6  8  1  1
  7  9  1  1
  8 10  1  0
 10 11  1  0
 10 12  2  0
 10 13  1  6
 11 14  1  0
 14 15  1  0
 14 16  2  0
 14 17  1  0
M  END
>  <%Rank>  (1093) 
83.358779

>  <N_hits>  (1093) 
2

>  <submitter_name>  (1093) 
nan

>  <original SMILES>  (1093) 
nan

>  <∆G_unbound>  (1093) 
1.95133

>  <∆G_bound>  (1093) 
-3.366845

>  <regarded>  (1093) 
5CMS_0_J_α,mArh-5cms_E_5_E_β

>  <ref_pdb>  (1093) 
nan

>  <smiles>  (1093) 
CC1OC(OP(=O)(O)OP(=O)(O)O)C(O)C1O

>  <submitter_email>  (1093) 
nan

>  <disregarded>  (1093) 


>  <LE>  (1093) 
-0.312834

>  <submitter_institution>  (1093) 
nan

>  <ref_mols>  (1093) 
5CMS_0_J,mArh-5cms_E_5_E

>  <N_constrained_atoms>  (1093) 
17.0

>  <ref_url>  (1093) 
nan

>  <method>  (1093) 
nan

>  <comRMSD>  (1093) 
1.586849

>  <N_unconstrained_atoms>  (1093) 
0.0

>  <∆∆G>  (1093) 
-5.318175

>  <runtime>  (1093) 
35.296417

>  <generation_date>  (1093) 
nan

$$$$
mArh-x0159_0_B_α-mArh-5cb5_E_0_E_γ
     RDKit          3D

 22 23  0  0  0  0  0  0  0  0999 V2000
    2.7030    7.6790   -9.8790 C   0  0  0  0  0  0  0  0  0  0  0  0
    1.2470    7.2970   -9.6460 C   0  0  2  0  0  0  0  0  0  0  0  0
    0.3780    8.5130   -9.2920 C   0  0  0  0  0  0  0  0  0  0  0  0
    1.1110    6.2060   -8.6060 C   0  0  0  0  0  0  0  0  0  0  0  0
    0.7560    9.1930   -7.9820 C   0  0  0  0  0  0  0  0  0  0  0  0
    0.0220    6.1660   -7.7240 C   0  0  0  0  0  0  0  0  0  0  0  0
    2.0810    5.2110   -8.5160 C   0  0  0  0  0  0  0  0  0  0  0  0
    0.7990   10.7170   -8.0170 C   0  0  0  0  0  0  0  0  0  0  0  0
   -0.0940    5.1500   -6.7970 C   0  0  0  0  0  0  0  0  0  0  0  0
    1.9250    4.2130   -7.5700 C   0  0  0  0  0  0  0  0  0  0  0  0
   -0.5170   11.3490   -7.5840 C   0  0  0  0  0  0  0  0  0  0  0  0
    0.8680    4.1900   -6.7540 C   0  0  0  0  0  0  0  0  0  0  0  0
   -0.3270   12.3670   -6.4620 C   0  0  0  0  0  0  0  0  0  0  0  0
   -0.4240   11.7910   -5.0550 C   0  0  0  0  0  0  0  0  0  0  0  0
   -1.1720   12.6170   -4.1640 O   0  0  0  0  0  0  0  0  0  0  0  0
   -1.0110   14.0260   -4.3410 C   0  0  1  0  0  0  0  0  0  0  0  0
   -0.8460   14.6970   -2.9900 C   0  0  0  0  0  0  0  0  0  0  0  0
    0.2810   14.4530   -5.0460 C   0  0  2  0  0  0  0  0  0  0  0  0
    1.3150   13.5190   -4.7450 O   0  0  0  0  0  0  0  0  0  0  0  0
   -0.1590   15.9330   -3.2220 O   0  0  0  0  0  0  0  0  0  0  0  0
    0.6220   15.8120   -4.4210 C   0  0  2  0  0  0  0  0  0  0  0  0
    0.2880   17.0160   -5.3020 C   0  0  0  0  0  0  0  0  0  0  0  0
  2  1  1  1
  2  3  1  0
  2  4  1  0
  3  5  1  0
  4  6  2  0
  4  7  1  0
  5  8  1  0
  6  9  1  0
  7 10  2  0
  8 11  1  0
  9 12  2  0
 10 12  1  0
 11 13  1  0
 13 14  1  0
 14 15  1  0
 16 15  1  1
 16 17  1  0
 16 18  1  0
 18 19  1  1
 17 20  1  0
 18 21  1  0
 20 21  1  0
 21 22  1  6
M  END
>  <%Rank>  (1094) 
83.435115

>  <N_hits>  (1094) 
2

>  <submitter_name>  (1094) 
nan

>  <original SMILES>  (1094) 
nan

>  <∆G_unbound>  (1094) 
0.328192

>  <∆G_bound>  (1094) 
-5.585962

>  <regarded>  (1094) 
mArh-x0159_0_B_α,mArh-5cb5_E_0_E_γ

>  <ref_pdb>  (1094) 
nan

>  <smiles>  (1094) 
CC(CCCCCCOC1COC(C)C1O)c1ccccc1

>  <submitter_email>  (1094) 
nan

>  <disregarded>  (1094) 


>  <LE>  (1094) 
-0.268825

>  <submitter_institution>  (1094) 
nan

>  <ref_mols>  (1094) 
mArh-x0159_0_B,mArh-5cb5_E_0_E

>  <N_constrained_atoms>  (1094) 
16.0

>  <ref_url>  (1094) 
nan

>  <method>  (1094) 
nan

>  <comRMSD>  (1094) 
1.362632

>  <N_unconstrained_atoms>  (1094) 
6.0

>  <∆∆G>  (1094) 
-5.914154

>  <runtime>  (1094) 
33.108748

>  <generation_date>  (1094) 
nan

$$$$
mArh-5mqx_0_A_γ-mArh-x0685_1_A_α
     RDKit          3D

 19 21  0  0  0  0  0  0  0  0999 V2000
   -0.3230   11.4570   -1.8770 O   0  0  0  0  0  0  0  0  0  0  0  0
    0.4680   12.3180   -2.9590 S   0  0  0  0  0  0  0  0  0  0  0  0
    1.9580   11.9140   -3.2970 O   0  0  0  0  0  0  0  0  0  0  0  0
   -1.5490   12.2080   -1.9440 C   0  0  1  0  0  0  0  0  0  0  0  0
   -0.6980   12.1430   -4.1530 N   0  0  0  0  0  0  0  0  0  0  0  0
    0.5220   13.7870   -2.3540 O   0  0  0  0  0  0  0  0  0  0  0  0
   -1.3820   13.5280   -1.2040 C   0  0  0  0  0  0  0  0  0  0  0  0
   -1.8240   12.6820   -3.4250 C   0  0  2  0  0  0  0  0  0  0  0  0
   -1.2960   10.9170   -4.5630 C   0  0  0  0  0  0  0  0  0  0  0  0
   -1.1930   14.5370   -2.2230 O   0  0  0  0  0  0  0  0  0  0  0  0
   -2.1130   14.1460   -3.2280 C   0  0  1  0  0  0  0  0  0  0  0  0
   -2.1550   15.0440   -4.4350 C   0  0  0  0  0  0  0  0  0  0  0  0
   -0.3680    9.9970   -5.1110 N   0  0  0  0  0  0  0  0  0  0  0  0
   -0.2720    9.9730   -6.5680 C   0  0  0  0  0  0  0  0  0  0  0  0
   -0.2520    8.5260   -7.0510 C   0  0  0  0  0  0  0  0  0  0  0  0
   -1.4360   10.7300   -7.2320 C   0  0  0  0  0  0  0  0  0  0  0  0
    0.0110    8.5100   -8.5390 C   0  0  0  0  0  0  0  0  0  0  0  0
   -1.2730   10.6970   -8.7530 C   0  0  0  0  0  0  0  0  0  0  0  0
   -1.0820    9.2680   -9.2840 C   0  0  0  0  0  0  0  0  0  0  0  0
  2  1  1  0
  2  3  1  0
  1  4  1  0
  2  5  1  0
  2  6  1  0
  4  7  1  1
  4  8  1  0
  8  5  1  6
  5  9  1  0
  7 10  1  0
  8 11  1  0
 10 11  1  0
 11 12  1  6
  9 13  1  0
 13 14  1  0
 14 15  1  0
 14 16  1  0
 15 17  1  0
 16 18  1  0
 17 19  1  0
 18 19  1  0
M  END
>  <%Rank>  (1095) 
83.51145

>  <N_hits>  (1095) 
2

>  <submitter_name>  (1095) 
nan

>  <original SMILES>  (1095) 
nan

>  <∆G_unbound>  (1095) 
0.843806

>  <∆G_bound>  (1095) 
-2.319516

>  <regarded>  (1095) 
mArh-5mqx_0_A_γ,mArh-x0685_1_A_α

>  <ref_pdb>  (1095) 
nan

>  <smiles>  (1095) 
CC1OCC2OS(O)(O)N(CNC3CCCCC3)C12

>  <submitter_email>  (1095) 
nan

>  <disregarded>  (1095) 


>  <LE>  (1095) 
-0.166491

>  <submitter_institution>  (1095) 
nan

>  <ref_mols>  (1095) 
mArh-5mqx_0_A,mArh-x0685_1_A

>  <N_constrained_atoms>  (1095) 
19.0

>  <ref_url>  (1095) 
nan

>  <method>  (1095) 
nan

>  <comRMSD>  (1095) 
1.567301

>  <N_unconstrained_atoms>  (1095) 
0.0

>  <∆∆G>  (1095) 
-3.163322

>  <runtime>  (1095) 
26.922491

>  <generation_date>  (1095) 
nan

$$$$
mArh-x0711_0_A_α-mArh-5cms_G_3_G_β
     RDKit          3D

 20 22  0  0  0  0  0  0  0  0999 V2000
   -1.8520   14.6620   -2.5130 N   0  0  0  0  0  0  0  0  0  0  0  0
   -1.4810   13.5200   -3.6550 S   0  0  2  0  0  0  0  0  0  0  0  0
    0.1430   12.8870   -3.4030 C   0  0  0  0  0  0  0  0  0  0  0  0
   -3.0260   14.7180   -1.8050 C   0  0  0  0  0  0  0  0  0  0  0  0
   -1.2040   14.2400   -5.0150 N   0  0  0  0  0  0  0  0  0  0  0  0
   -2.3150   12.4270   -3.2970 O   0  0  0  0  0  0  0  0  0  0  0  0
   -4.2430   15.0710   -2.3680 C   0  0  0  0  0  0  0  0  0  0  0  0
   -2.9930   14.3850   -0.4420 C   0  0  0  0  0  0  0  0  0  0  0  0
   -5.4110   15.0820   -1.6140 C   0  0  0  0  0  0  0  0  0  0  0  0
   -4.1580   14.3910    0.3260 C   0  0  0  0  0  0  0  0  0  0  0  0
    0.1860   14.6910   -4.8770 C   0  0  2  0  0  0  0  0  0  0  0  0
    0.4060   14.3270   -3.4200 C   0  0  2  0  0  0  0  0  0  0  0  0
   -5.3730   14.7340   -0.2660 C   0  0  0  0  0  0  0  0  0  0  0  0
    1.5960   15.0670   -3.1000 C   0  0  0  0  0  0  0  0  0  0  0  0
    0.6760   16.1290   -4.8950 C   0  0  1  0  0  0  0  0  0  0  0  0
   -6.6100   14.7120    0.5530 C   0  0  0  0  0  0  0  0  0  0  0  0
   -0.2980   17.2200   -5.2870 C   0  0  0  0  0  0  0  0  0  0  0  0
    1.0700   16.3420   -3.5060 O   0  0  0  0  0  0  0  0  0  0  0  0
   -6.5180   14.7440    1.9180 N   0  0  0  0  0  0  0  0  0  0  0  0
   -7.7080   14.6640    0.0130 O   0  0  0  0  0  0  0  0  0  0  0  0
  2  1  1  1
  2  3  1  0
  1  4  1  0
  2  5  2  0
  2  6  2  0
  4  7  2  0
  4  8  1  0
  7  9  1  0
  8 10  2  0
 11  5  1  1
 12  3  1  6
 11 12  1  0
  9 13  2  0
 10 13  1  0
 12 14  1  0
 11 15  1  0
 13 16  1  0
 15 17  1  1
 14 18  1  0
 15 18  1  0
 16 19  1  0
 16 20  2  0
M  END
>  <%Rank>  (1096) 
83.587786

>  <N_hits>  (1096) 
2

>  <submitter_name>  (1096) 
nan

>  <original SMILES>  (1096) 
nan

>  <∆G_unbound>  (1096) 
-0.132522

>  <∆G_bound>  (1096) 
-6.32129

>  <regarded>  (1096) 
mArh-x0711_0_A_α,mArh-5cms_G_3_G_β

>  <ref_pdb>  (1096) 
nan

>  <smiles>  (1096) 
CC1OCC2CS(=O)(Nc3ccc(C(N)=O)cc3)=NC21

>  <submitter_email>  (1096) 
nan

>  <disregarded>  (1096) 


>  <LE>  (1096) 
-0.309438

>  <submitter_institution>  (1096) 
nan

>  <ref_mols>  (1096) 
mArh-x0711_0_A,mArh-5cms_G_3_G

>  <N_constrained_atoms>  (1096) 
20.0

>  <ref_url>  (1096) 
nan

>  <method>  (1096) 
nan

>  <comRMSD>  (1096) 
1.668674

>  <N_unconstrained_atoms>  (1096) 
0.0

>  <∆∆G>  (1096) 
-6.188768

>  <runtime>  (1096) 
24.2133

>  <generation_date>  (1096) 
nan

$$$$
mArh-x0228_0_B_β-mArh-5cms_A_0_A_α
     RDKit          3D

 18 19  0  0  0  0  0  0  0  0999 V2000
   -6.6650   25.5910  -14.0610 N   0  0  0  0  0  0  0  0  0  0  0  0
   -5.6060   25.4040  -13.1650 C   0  0  0  0  0  0  0  0  0  0  0  0
   -4.3600   26.0280  -13.4000 C   0  0  0  0  0  0  0  0  0  0  0  0
   -5.8050   24.5840  -12.0320 C   0  0  0  0  0  0  0  0  0  0  0  0
   -4.2230   26.8010  -14.5250 O   0  0  0  0  0  0  0  0  0  0  0  0
   -4.7700   24.3820  -11.1310 C   0  0  0  0  0  0  0  0  0  0  0  0
   -3.3620   25.8260  -12.5010 C   0  0  0  0  0  0  0  0  0  0  0  0
   -2.9010   26.9220  -15.0520 C   0  0  0  0  0  0  0  0  0  0  0  0
   -4.8320   23.5190   -9.8820 C   0  0  0  0  0  0  0  0  0  0  0  0
   -3.6010   25.0100  -11.4030 C   0  0  0  0  0  0  0  0  0  0  0  0
   -3.5880   22.6300   -9.7140 C   0  0  2  0  0  0  0  0  0  0  0  0
   -3.7170   21.4650   -8.9030 O   0  0  0  0  0  0  0  0  0  0  0  0
   -2.2370   23.1520   -9.2400 C   0  0  1  0  0  0  0  0  0  0  0  0
   -1.8400   24.4560   -9.1850 O   0  0  0  0  0  0  0  0  0  0  0  0
   -2.3300   21.1590   -8.5210 C   0  0  1  0  0  0  0  0  0  0  0  0
   -1.7260   22.4480   -8.1220 C   0  0  1  0  0  0  0  0  0  0  0  0
   -2.2110   20.1820   -7.3870 C   0  0  0  0  0  0  0  0  0  0  0  0
   -0.3120   22.4970   -8.3170 O   0  0  0  0  0  0  0  0  0  0  0  0
  1  2  1  0
  2  3  2  0
  2  4  1  0
  3  5  1  0
  4  6  2  0
  3  7  1  0
  5  8  1  0
  6  9  1  0
  6 10  1  0
  7 10  2  0
 11  9  1  1
 11 12  1  0
 11 13  1  0
 13 14  1  1
 12 15  1  0
 13 16  1  0
 15 16  1  0
 15 17  1  1
 16 18  1  6
M  END
>  <%Rank>  (1097) 
83.664122

>  <N_hits>  (1097) 
2

>  <submitter_name>  (1097) 
nan

>  <original SMILES>  (1097) 
nan

>  <∆G_unbound>  (1097) 
0.877272

>  <∆G_bound>  (1097) 
-0.065146

>  <regarded>  (1097) 
mArh-x0228_0_B_β,mArh-5cms_A_0_A_α

>  <ref_pdb>  (1097) 
nan

>  <smiles>  (1097) 
COc1ccc(CC2OC(C)C(O)C2O)cc1N

>  <submitter_email>  (1097) 
nan

>  <disregarded>  (1097) 


>  <LE>  (1097) 
-0.052357

>  <submitter_institution>  (1097) 
nan

>  <ref_mols>  (1097) 
mArh-x0228_0_B,mArh-5cms_A_0_A

>  <N_constrained_atoms>  (1097) 
18.0

>  <ref_url>  (1097) 
nan

>  <method>  (1097) 
nan

>  <comRMSD>  (1097) 
1.520316

>  <N_unconstrained_atoms>  (1097) 
0.0

>  <∆∆G>  (1097) 
-0.942418

>  <runtime>  (1097) 
43.584528

>  <generation_date>  (1097) 
nan

$$$$
mArh-5cms_H_7_H_α-mArh-6mea_B_0_B_γ
     RDKit          3D

 23 24  0  0  0  0  0  0  0  0999 V2000
   -3.6720   21.4120   -8.2660 C   0  0  0  0  0  0  0  0  0  0  0  0
   -2.6400   21.7030   -9.2910 C   0  0  1  0  0  0  0  0  0  0  0  0
   -3.3320   22.3930  -10.3260 O   0  0  0  0  0  0  0  0  0  0  0  0
   -1.7230   22.5880   -8.5140 C   0  0  1  0  0  0  0  0  0  0  0  0
   -0.4100   22.6510   -8.9710 O   0  0  0  0  0  0  0  0  0  0  0  0
   -3.4190   23.7210   -9.8490 C   0  0  2  0  0  0  0  0  0  0  0  0
   -2.3580   23.8960   -8.7190 C   0  0  2  0  0  0  0  0  0  0  0  0
   -4.7220   23.9970   -9.3970 O   0  0  0  0  0  0  0  0  0  0  0  0
   -1.2910   24.7540   -9.0680 O   0  0  0  0  0  0  0  0  0  0  0  0
    0.5030   22.3380   -7.9670 C   0  0  0  0  0  0  0  0  0  0  0  0
   -0.0190   21.0570   -7.4040 C   0  0  0  0  0  0  0  0  0  0  0  0
   -0.7740   20.1320   -8.2950 C   0  0  0  0  0  0  0  0  0  0  0  0
   -0.3300   18.7400   -7.9770 C   0  0  0  0  0  0  0  0  0  0  0  0
    0.6110   18.6460   -6.7780 C   0  0  0  0  0  0  0  0  0  0  0  0
   -0.0140   18.0320   -5.5400 C   0  0  0  0  0  0  0  0  0  0  0  0
    0.7640   16.8930   -4.8930 C   0  0  0  0  0  0  0  0  0  0  0  0
   -0.0870   15.7670   -4.3300 C   0  0  2  0  0  0  0  0  0  0  0  0
    0.1530   15.4800   -2.9480 O   0  0  0  0  0  0  0  0  0  0  0  0
   -0.0950   14.3990   -4.9800 C   0  0  1  0  0  0  0  0  0  0  0  0
    1.1290   13.6750   -4.9250 O   0  0  0  0  0  0  0  0  0  0  0  0
   -0.6090   14.2850   -2.6990 C   0  0  0  0  0  0  0  0  0  0  0  0
   -1.1510   13.8290   -4.0560 C   0  0  2  0  0  0  0  0  0  0  0  0
   -1.3100   12.4280   -4.2050 O   0  0  0  0  0  0  0  0  0  0  0  0
  2  1  1  1
  2  3  1  0
  2  4  1  0
  4  5  1  6
  3  6  1  0
  4  7  1  0
  6  7  1  0
  6  8  1  1
  7  9  1  6
  5 10  1  0
 10 11  1  0
 11 12  1  0
 12 13  1  0
 13 14  1  0
 14 15  1  0
 15 16  1  0
 17 16  1  6
 17 18  1  0
 17 19  1  0
 19 20  1  1
 18 21  1  0
 19 22  1  0
 21 22  1  0
 22 23  1  1
M  END
>  <%Rank>  (1098) 
83.740458

>  <N_hits>  (1098) 
2

>  <submitter_name>  (1098) 
nan

>  <original SMILES>  (1098) 
nan

>  <∆G_unbound>  (1098) 
0.438128

>  <∆G_bound>  (1098) 
-4.81305

>  <regarded>  (1098) 
mArh-5cms_H_7_H_α,mArh-6mea_B_0_B_γ

>  <ref_pdb>  (1098) 
nan

>  <smiles>  (1098) 
CC1OC(O)C(O)C1OCCCCCCCC1OCC(O)C1O

>  <submitter_email>  (1098) 
nan

>  <disregarded>  (1098) 


>  <LE>  (1098) 
-0.228312

>  <submitter_institution>  (1098) 
nan

>  <ref_mols>  (1098) 
mArh-5cms_H_7_H,mArh-6mea_B_0_B

>  <N_constrained_atoms>  (1098) 
17.0

>  <ref_url>  (1098) 
nan

>  <method>  (1098) 
nan

>  <comRMSD>  (1098) 
1.411512

>  <N_unconstrained_atoms>  (1098) 
6.0

>  <∆∆G>  (1098) 
-5.251177

>  <runtime>  (1098) 
46.428295

>  <generation_date>  (1098) 
nan

$$$$
mArh-5cms_P_15_P_β-5MQX_0_A_α
     RDKit          3D

 20 20  0  0  0  0  0  0  0  0999 V2000
   -0.4420   20.9160   -8.3550 O   0  0  0  0  0  0  0  0  0  0  0  0
    0.1180   19.6530   -7.5640 P   0  0  0  0  0  0  0  0  0  0  0  0
   -1.1120   19.4080   -6.6090 O   0  0  0  0  0  0  0  0  0  0  0  0
    1.4450   19.8470   -6.9570 O   0  0  0  0  0  0  0  0  0  0  0  0
    0.0220   18.4740   -8.6400 O   0  0  0  0  0  0  0  0  0  0  0  0
   -1.5680   18.0730   -5.9560 P   0  0  0  0  0  0  0  0  0  0  0  0
   -0.3830   17.0240   -5.9870 O   0  0  0  0  0  0  0  0  0  0  0  0
   -2.9270   17.3720   -6.6160 N   0  0  0  0  0  0  0  0  0  0  0  0
   -1.8120   18.3270   -4.4430 O   0  0  0  0  0  0  0  0  0  0  0  0
   -3.3520   16.0630   -6.1880 C   0  0  0  0  0  0  0  0  0  0  0  0
   -4.5130   15.6190   -7.0800 C   0  0  0  0  0  0  0  0  0  0  0  0
   -5.6350   16.6510   -7.1930 C   0  0  0  0  0  0  0  0  0  0  0  0
   -6.5550   16.6480   -8.3790 C   0  0  1  0  0  0  0  0  0  0  0  0
   -7.3690   15.4850   -8.1960 O   0  0  0  0  0  0  0  0  0  0  0  0
   -7.5230   17.8740   -8.4300 C   0  0  1  0  0  0  0  0  0  0  0  0
   -7.4200   18.7830   -9.5240 O   0  0  0  0  0  0  0  0  0  0  0  0
   -8.5490   16.0140   -7.6400 C   0  0  1  0  0  0  0  0  0  0  0  0
   -8.8510   17.1790   -8.5740 C   0  0  2  0  0  0  0  0  0  0  0  0
   -9.5530   15.0440   -7.5140 O   0  0  0  0  0  0  0  0  0  0  0  0
   -9.0460   16.7630   -9.9240 O   0  0  0  0  0  0  0  0  0  0  0  0
  1  2  1  0
  2  3  1  0
  2  4  2  0
  2  5  1  0
  3  6  1  0
  6  7  1  0
  6  8  2  3
  6  9  1  0
  8 10  1  0
 10 11  1  0
 11 12  1  0
 13 12  1  1
 13 14  1  0
 13 15  1  0
 15 16  1  6
 14 17  1  0
 15 18  1  0
 17 18  1  0
 17 19  1  6
 18 20  1  6
M  END
>  <%Rank>  (1099) 
83.816794

>  <N_hits>  (1099) 
2

>  <submitter_name>  (1099) 
nan

>  <original SMILES>  (1099) 
nan

>  <∆G_unbound>  (1099) 
0.625985

>  <∆G_bound>  (1099) 
-7.240611

>  <regarded>  (1099) 
mArh-5cms_P_15_P_β,5MQX_0_A_α

>  <ref_pdb>  (1099) 
nan

>  <smiles>  (1099) 
O=P(O)(O)OP(O)(O)=NCCCC1OC(O)C(O)C1O

>  <submitter_email>  (1099) 
nan

>  <disregarded>  (1099) 


>  <LE>  (1099) 
-0.39333

>  <submitter_institution>  (1099) 
nan

>  <ref_mols>  (1099) 
mArh-5cms_P_15_P,5MQX_0_A

>  <N_constrained_atoms>  (1099) 
18.0

>  <ref_url>  (1099) 
nan

>  <method>  (1099) 
nan

>  <comRMSD>  (1099) 
1.639391

>  <N_unconstrained_atoms>  (1099) 
2.0

>  <∆∆G>  (1099) 
-7.866596

>  <runtime>  (1099) 
33.48347

>  <generation_date>  (1099) 
nan

$$$$
mArh-x0631_0_A_α-6WOJ_0_D_γ
     RDKit          3D

 21 22  0  0  0  0  0  0  0  0999 V2000
    0.9820   10.6570  -11.3150 N   0  0  0  0  0  0  0  0  0  0  0  0
    1.8290    9.5350  -11.6880 C   0  0  2  0  0  0  0  0  0  0  0  0
    1.0300    8.6640  -12.4010 O   0  0  0  0  0  0  0  0  0  0  0  0
    2.1110    8.8330  -10.3370 C   0  0  0  0  0  0  0  0  0  0  0  0
    3.0010   10.0050  -12.6490 C   0  0  1  0  0  0  0  0  0  0  0  0
    1.2980    9.2200   -9.0540 C   0  0  0  0  0  0  0  0  0  0  0  0
    3.2310    9.2160  -13.8120 O   0  0  0  0  0  0  0  0  0  0  0  0
    2.7750   11.3970  -13.2590 C   0  0  0  0  0  0  0  0  0  0  0  0
    0.9240   10.6860   -8.6880 C   0  0  0  0  0  0  0  0  0  0  0  0
    4.1360   10.0040  -14.5950 C   0  0  0  0  0  0  0  0  0  0  0  0
    3.6590   11.4330  -14.4840 C   0  0  0  0  0  0  0  0  0  0  0  0
    1.0520   11.0270   -7.1780 C   0  0  0  0  0  0  0  0  0  0  0  0
    0.3270   12.1820   -6.4720 C   0  0  0  0  0  0  0  0  0  0  0  0
    1.1080   12.9680   -5.5140 O   0  0  0  0  0  0  0  0  0  0  0  0
    0.4500   14.2450   -5.2330 C   0  0  2  0  0  0  0  0  0  0  0  0
    1.2260   15.2540   -4.3700 C   0  0  1  0  0  0  0  0  0  0  0  0
   -0.7820   13.9840   -4.3800 C   0  0  1  0  0  0  0  0  0  0  0  0
   -1.3430   12.7080   -4.6170 O   0  0  0  0  0  0  0  0  0  0  0  0
    0.9370   16.6880   -4.8230 C   0  0  0  0  0  0  0  0  0  0  0  0
   -0.2650   14.1460   -2.9610 C   0  0  0  0  0  0  0  0  0  0  0  0
    0.7520   15.1500   -3.0040 O   0  0  0  0  0  0  0  0  0  0  0  0
  2  1  1  1
  2  3  1  0
  2  4  1  0
  2  5  1  0
  4  6  1  0
  5  7  1  0
  5  8  1  6
  6  9  1  0
  7 10  1  0
  8 11  1  0
 10 11  1  0
  9 12  1  0
 12 13  1  0
 13 14  1  0
 15 14  1  1
 15 16  1  0
 15 17  1  0
 17 18  1  1
 16 19  1  6
 17 20  1  0
 16 21  1  0
 20 21  1  0
M  END
>  <%Rank>  (1100) 
83.89313

>  <N_hits>  (1100) 
2

>  <submitter_name>  (1100) 
nan

>  <original SMILES>  (1100) 
nan

>  <∆G_unbound>  (1100) 
1.406774

>  <∆G_bound>  (1100) 
-5.683553

>  <regarded>  (1100) 
mArh-x0631_0_A_α,6WOJ_0_D_γ

>  <ref_pdb>  (1100) 
nan

>  <smiles>  (1100) 
CC1OCC(O)C1OCCCCCC(N)(O)C1CCCO1

>  <submitter_email>  (1100) 
nan

>  <disregarded>  (1100) 


>  <LE>  (1100) 
-0.337635

>  <submitter_institution>  (1100) 
nan

>  <ref_mols>  (1100) 
mArh-x0631_0_A,6WOJ_0_D

>  <N_constrained_atoms>  (1100) 
16.0

>  <ref_url>  (1100) 
nan

>  <method>  (1100) 
nan

>  <comRMSD>  (1100) 
1.468567

>  <N_unconstrained_atoms>  (1100) 
5.0

>  <∆∆G>  (1100) 
-7.090327

>  <runtime>  (1100) 
24.098923

>  <generation_date>  (1100) 
nan

$$$$
5L9K_0_B_δ-6WOJ_0_D_α
     RDKit          3D

 24 26  0  0  0  0  0  0  0  0999 V2000
   -4.2290   15.7630    1.7630 N   0  0  0  0  0  0  0  0  0  0  0  0
   -3.2130   14.9910    1.0780 C   0  0  1  0  0  0  0  0  0  0  0  0
   -3.2760   14.9080   -0.4710 C   0  0  2  0  0  0  0  0  0  0  0  0
   -1.9400   15.5100    1.5320 N   0  0  0  0  0  0  0  0  0  0  0  0
   -1.8520   14.8790   -0.9220 C   0  0  2  0  0  0  0  0  0  0  0  0
   -3.6650   15.9250   -1.4790 N   0  0  0  0  0  0  0  0  0  0  0  0
   -0.8010   14.6770    1.1870 C   0  0  0  0  0  0  0  0  0  0  0  0
   -2.1190   14.3320   -2.2200 N   0  0  0  0  0  0  0  0  0  0  0  0
   -3.0440   15.3380   -2.7380 C   0  0  2  0  0  0  0  0  0  0  0  0
   -0.9790   14.0760   -0.1200 N   0  0  0  0  0  0  0  0  0  0  0  0
   -2.2320   16.2910   -3.7050 C   0  0  0  0  0  0  0  0  0  0  0  0
   -2.6920   16.4320   -5.1880 C   0  0  0  0  0  0  0  0  0  0  0  0
   -2.2780   17.6690   -6.0790 C   0  0  0  0  0  0  0  0  0  0  0  0
   -1.9280   19.0530   -5.4620 C   0  0  0  0  0  0  0  0  0  0  0  0
   -2.5800   20.2810   -6.1720 C   0  0  0  0  0  0  0  0  0  0  0  0
   -3.8100   20.8520   -5.6160 O   0  0  0  0  0  0  0  0  0  0  0  0
   -4.4620   21.6770   -6.6150 C   0  0  2  0  0  0  0  0  0  0  0  0
   -3.9460   21.2550   -7.8750 O   0  0  0  0  0  0  0  0  0  0  0  0
   -4.1470   23.1960   -6.4880 C   0  0  2  0  0  0  0  0  0  0  0  0
   -5.3200   24.0380   -6.3600 O   0  0  0  0  0  0  0  0  0  0  0  0
   -2.9890   22.2060   -8.3230 C   0  0  1  0  0  0  0  0  0  0  0  0
   -3.4970   23.5410   -7.8360 C   0  0  1  0  0  0  0  0  0  0  0  0
   -1.5750   21.8790   -7.8640 C   0  0  0  0  0  0  0  0  0  0  0  0
   -4.4240   24.0860   -8.7780 O   0  0  0  0  0  0  0  0  0  0  0  0
  2  1  1  6
  2  3  1  0
  2  4  1  0
  3  5  1  0
  3  6  1  6
  4  7  1  0
  5  8  1  6
  6  9  1  0
  8  9  1  0
  5 10  1  0
  7 10  1  0
  9 11  1  1
 11 12  1  0
 12 13  1  0
 13 14  1  0
 14 15  1  0
 15 16  1  0
 17 16  1  1
 17 18  1  0
 17 19  1  0
 19 20  1  6
 18 21  1  0
 19 22  1  0
 21 22  1  0
 21 23  1  1
 22 24  1  6
M  END
>  <%Rank>  (1101) 
83.969466

>  <N_hits>  (1101) 
2

>  <submitter_name>  (1101) 
nan

>  <original SMILES>  (1101) 
nan

>  <∆G_unbound>  (1101) 
0.335171

>  <∆G_bound>  (1101) 
-9.848593

>  <regarded>  (1101) 
5L9K_0_B_δ,6WOJ_0_D_α

>  <ref_pdb>  (1101) 
nan

>  <smiles>  (1101) 
CC1OC(OCCCCCC2NC3NCNC(N)C3N2)C(O)C1O

>  <submitter_email>  (1101) 
nan

>  <disregarded>  (1101) 


>  <LE>  (1101) 
-0.424324

>  <submitter_institution>  (1101) 
nan

>  <ref_mols>  (1101) 
5L9K_0_B,6WOJ_0_D

>  <N_constrained_atoms>  (1101) 
19.0

>  <ref_url>  (1101) 
nan

>  <method>  (1101) 
nan

>  <comRMSD>  (1101) 
1.601458

>  <N_unconstrained_atoms>  (1101) 
5.0

>  <∆∆G>  (1101) 
-10.183764

>  <runtime>  (1101) 
47.388056

>  <generation_date>  (1101) 
nan

$$$$
5LW0_0_A_α-5CMS_0_K_γ
     RDKit          3D

 22 23  0  0  0  0  0  0  0  0999 V2000
   -2.4920   21.3990   -8.9530 C   0  0  0  0  0  0  0  0  0  0  0  0
   -3.2910   22.5290   -8.3750 C   0  0  2  0  0  0  0  0  0  0  0  0
   -3.3810   22.1600   -7.0170 O   0  0  0  0  0  0  0  0  0  0  0  0
   -4.7060   22.8390   -8.8780 C   0  0  1  0  0  0  0  0  0  0  0  0
   -5.0910   22.1290  -10.0430 O   0  0  0  0  0  0  0  0  0  0  0  0
   -4.7050   22.0340   -6.5800 C   0  0  1  0  0  0  0  0  0  0  0  0
   -5.6270   22.4820   -7.7200 C   0  0  2  0  0  0  0  0  0  0  0  0
   -4.7810   20.6990   -6.1790 O   0  0  0  0  0  0  0  0  0  0  0  0
   -6.6500   21.5770   -8.0940 O   0  0  0  0  0  0  0  0  0  0  0  0
   -3.4480   20.1460   -6.4480 C   0  0  0  0  0  0  0  0  0  0  0  0
   -2.3840   20.3170   -5.4000 C   0  0  0  0  0  0  0  0  0  0  0  0
   -1.7200   18.9640   -5.1060 C   0  0  0  0  0  0  0  0  0  0  0  0
   -0.4530   18.7090   -5.9120 C   0  0  0  0  0  0  0  0  0  0  0  0
    0.6080   18.0270   -5.0420 C   0  0  0  0  0  0  0  0  0  0  0  0
    0.7940   16.5940   -5.5120 C   0  0  0  0  0  0  0  0  0  0  0  0
    0.9290   15.4880   -4.4630 C   0  0  1  0  0  0  0  0  0  0  0  0
    0.0730   15.7920   -3.3340 O   0  0  0  0  0  0  0  0  0  0  0  0
    0.4950   14.1000   -4.9820 C   0  0  1  0  0  0  0  0  0  0  0  0
    1.3590   13.0190   -4.6800 O   0  0  0  0  0  0  0  0  0  0  0  0
   -0.7140   14.6310   -3.0440 C   0  0  0  0  0  0  0  0  0  0  0  0
   -0.8770   13.8980   -4.3560 C   0  0  2  0  0  0  0  0  0  0  0  0
   -1.1770   12.5140   -4.2050 O   0  0  0  0  0  0  0  0  0  0  0  0
  2  1  1  6
  2  3  1  0
  2  4  1  0
  4  5  1  6
  3  6  1  0
  4  7  1  0
  6  7  1  0
  6  8  1  6
  7  9  1  6
  8 10  1  0
 10 11  1  0
 11 12  1  0
 12 13  1  0
 13 14  1  0
 14 15  1  0
 16 15  1  6
 16 17  1  0
 16 18  1  0
 18 19  1  1
 17 20  1  0
 18 21  1  0
 20 21  1  0
 21 22  1  1
M  END
>  <%Rank>  (1102) 
84.045802

>  <N_hits>  (1102) 
2

>  <submitter_name>  (1102) 
nan

>  <original SMILES>  (1102) 
nan

>  <∆G_unbound>  (1102) 
0.187336

>  <∆G_bound>  (1102) 
-7.552306

>  <regarded>  (1102) 
5LW0_0_A_α,5CMS_0_K_γ

>  <ref_pdb>  (1102) 
nan

>  <smiles>  (1102) 
CC1OC(OCCCCCCC2OCC(O)C2O)C(O)C1O

>  <submitter_email>  (1102) 
nan

>  <disregarded>  (1102) 


>  <LE>  (1102) 
-0.351802

>  <submitter_institution>  (1102) 
nan

>  <ref_mols>  (1102) 
5LW0_0_A,5CMS_0_K

>  <N_constrained_atoms>  (1102) 
17.0

>  <ref_url>  (1102) 
nan

>  <method>  (1102) 
nan

>  <comRMSD>  (1102) 
1.520576

>  <N_unconstrained_atoms>  (1102) 
5.0

>  <∆∆G>  (1102) 
-7.739642

>  <runtime>  (1102) 
41.009059

>  <generation_date>  (1102) 
nan

$$$$
5CMS_0_F_δ-5CB5_0_E_α
     RDKit          3D

 24 26  0  0  0  0  0  0  0  0999 V2000
   -3.6510   15.4560    1.6620 N   0  0  0  0  0  0  0  0  0  0  0  0
   -2.6170   14.7920    0.8990 C   0  0  1  0  0  0  0  0  0  0  0  0
   -2.3280   15.4070   -0.4790 C   0  0  1  0  0  0  0  0  0  0  0  0
   -1.4630   14.9140    1.7500 N   0  0  0  0  0  0  0  0  0  0  0  0
   -1.0990   14.6810   -0.9580 C   0  0  1  0  0  0  0  0  0  0  0  0
   -3.2390   15.2490   -1.6350 N   0  0  0  0  0  0  0  0  0  0  0  0
   -0.2000   14.4730    1.2050 C   0  0  0  0  0  0  0  0  0  0  0  0
   -0.9680   15.1860   -2.2940 N   0  0  0  0  0  0  0  0  0  0  0  0
   -2.3270   15.0370   -2.7980 C   0  0  2  0  0  0  0  0  0  0  0  0
    0.0350   14.9760   -0.1390 N   0  0  0  0  0  0  0  0  0  0  0  0
   -2.6860   15.9360   -4.0260 C   0  0  0  0  0  0  0  0  0  0  0  0
   -1.6910   17.0340   -4.5280 C   0  0  0  0  0  0  0  0  0  0  0  0
   -2.0790   17.7600   -5.8510 C   0  0  0  0  0  0  0  0  0  0  0  0
   -2.2160   19.3140   -5.7550 C   0  0  0  0  0  0  0  0  0  0  0  0
   -3.2300   19.9060   -6.7520 C   0  0  0  0  0  0  0  0  0  0  0  0
   -4.1100   20.9270   -6.2180 O   0  0  0  0  0  0  0  0  0  0  0  0
   -4.8290   21.5940   -7.2680 C   0  0  2  0  0  0  0  0  0  0  0  0
   -4.3520   21.1080   -8.5100 O   0  0  0  0  0  0  0  0  0  0  0  0
   -4.5690   23.1190   -7.2430 C   0  0  2  0  0  0  0  0  0  0  0  0
   -5.8030   23.8720   -7.2520 O   0  0  0  0  0  0  0  0  0  0  0  0
   -3.3410   22.0050   -8.9570 C   0  0  1  0  0  0  0  0  0  0  0  0
   -3.8150   23.3880   -8.5570 C   0  0  1  0  0  0  0  0  0  0  0  0
   -1.9780   21.6590   -8.3620 C   0  0  0  0  0  0  0  0  0  0  0  0
   -4.6380   23.9870   -9.5620 O   0  0  0  0  0  0  0  0  0  0  0  0
  2  1  1  1
  2  3  1  0
  2  4  1  0
  3  5  1  0
  3  6  1  6
  4  7  1  0
  5  8  1  6
  6  9  1  0
  8  9  1  0
  5 10  1  0
  7 10  1  0
  9 11  1  6
 11 12  1  0
 12 13  1  0
 13 14  1  0
 14 15  1  0
 15 16  1  0
 17 16  1  1
 17 18  1  0
 17 19  1  0
 19 20  1  6
 18 21  1  0
 19 22  1  0
 21 22  1  0
 21 23  1  1
 22 24  1  6
M  END
>  <%Rank>  (1103) 
84.122137

>  <N_hits>  (1103) 
2

>  <submitter_name>  (1103) 
nan

>  <original SMILES>  (1103) 
nan

>  <∆G_unbound>  (1103) 
0.335171

>  <∆G_bound>  (1103) 
-8.446697

>  <regarded>  (1103) 
5CMS_0_F_δ,5CB5_0_E_α

>  <ref_pdb>  (1103) 
nan

>  <smiles>  (1103) 
CC1OC(OCCCCCC2NC3NCNC(N)C3N2)C(O)C1O

>  <submitter_email>  (1103) 
nan

>  <disregarded>  (1103) 


>  <LE>  (1103) 
-0.365911

>  <submitter_institution>  (1103) 
nan

>  <ref_mols>  (1103) 
5CMS_0_F,5CB5_0_E

>  <N_constrained_atoms>  (1103) 
19.0

>  <ref_url>  (1103) 
nan

>  <method>  (1103) 
nan

>  <comRMSD>  (1103) 
1.589589

>  <N_unconstrained_atoms>  (1103) 
5.0

>  <∆∆G>  (1103) 
-8.781868

>  <runtime>  (1103) 
45.185743

>  <generation_date>  (1103) 
nan

$$$$
mArh-x0849_0_A_α-5CMS_0_Q_α
     RDKit          3D

 27 29  0  0  0  0  0  0  0  0999 V2000
   -3.6100   15.1910   -3.0950 Br  0  0  0  0  0  0  0  0  0  0  0  0
   -3.3880   15.0960   -1.2130 C   0  0  0  0  0  0  0  0  0  0  0  0
   -2.1450   14.8920   -0.5220 C   0  0  0  0  0  0  0  0  0  0  0  0
   -4.6000   15.2490   -0.5350 C   0  0  0  0  0  0  0  0  0  0  0  0
   -2.3240   14.8520    0.8950 C   0  0  0  0  0  0  0  0  0  0  0  0
   -4.5850   15.1920    0.8230 C   0  0  0  0  0  0  0  0  0  0  0  0
   -0.7560   14.7180   -0.9810 C   0  0  0  0  0  0  0  0  0  0  0  0
   -0.1000   14.6790   -2.3820 C   0  0  0  0  0  0  0  0  0  0  0  0
   -3.4760   14.9960    1.5150 N   0  0  0  0  0  0  0  0  0  0  0  0
   -1.3650   14.6650    1.7590 N   0  0  0  0  0  0  0  0  0  0  0  0
    0.2160   14.5410   -0.0020 C   0  0  0  0  0  0  0  0  0  0  0  0
   -0.7270   15.3880   -3.6040 C   0  0  0  0  0  0  0  0  0  0  0  0
   -0.1350   14.5210    1.3260 C   0  0  0  0  0  0  0  0  0  0  0  0
   -0.0330   16.6920   -4.0800 C   0  0  0  0  0  0  0  0  0  0  0  0
    0.6950   16.6460   -5.4130 C   0  0  0  0  0  0  0  0  0  0  0  0
    0.8970   18.0540   -6.0000 C   0  0  0  0  0  0  0  0  0  0  0  0
   -0.0220   18.5470   -7.1380 C   0  0  0  0  0  0  0  0  0  0  0  0
   -0.2440   20.0450   -7.1160 C   0  0  0  0  0  0  0  0  0  0  0  0
   -1.1150   20.6500   -8.1810 C   0  0  0  0  0  0  0  0  0  0  0  0
   -2.2290   21.5000   -7.5750 C   0  0  2  0  0  0  0  0  0  0  0  0
   -3.5190   21.0810   -8.1240 O   0  0  0  0  0  0  0  0  0  0  0  0
   -2.0900   22.9800   -7.8610 C   0  0  1  0  0  0  0  0  0  0  0  0
   -0.7300   23.2820   -8.1140 O   0  0  0  0  0  0  0  0  0  0  0  0
   -4.2010   22.2550   -8.5030 C   0  0  1  0  0  0  0  0  0  0  0  0
   -3.0660   22.9410   -9.0160 C   0  0  1  0  0  0  0  0  0  0  0  0
   -5.0720   22.0970   -9.6090 O   0  0  0  0  0  0  0  0  0  0  0  0
   -3.4340   24.1100   -9.7130 O   0  0  0  0  0  0  0  0  0  0  0  0
  1  2  1  0
  2  3  2  0
  2  4  1  0
  3  5  1  0
  4  6  2  0
  3  7  1  0
  7  8  1  0
  5  9  2  0
  6  9  1  0
  5 10  1  0
  7 11  2  0
  8 12  1  0
 10 13  2  0
 11 13  1  0
 12 14  1  0
 14 15  1  0
 15 16  1  0
 16 17  1  0
 17 18  1  0
 18 19  1  0
 20 19  1  6
 20 21  1  0
 20 22  1  0
 22 23  1  6
 21 24  1  0
 22 25  1  0
 24 25  1  0
 24 26  1  6
 25 27  1  1
M  END
>  <%Rank>  (1104) 
84.198473

>  <N_hits>  (1104) 
2

>  <submitter_name>  (1104) 
nan

>  <original SMILES>  (1104) 
nan

>  <∆G_unbound>  (1104) 
0.130221

>  <∆G_bound>  (1104) 
-10.198493

>  <regarded>  (1104) 
mArh-x0849_0_A_α,5CMS_0_Q_α

>  <ref_pdb>  (1104) 
nan

>  <smiles>  (1104) 
OC1OC(CCCCCCCCc2ccnc3nccc(Br)c23)C(O)C1O

>  <submitter_email>  (1104) 
nan

>  <disregarded>  (1104) 


>  <LE>  (1104) 
-0.382545

>  <submitter_institution>  (1104) 
nan

>  <ref_mols>  (1104) 
mArh-x0849_0_A,5CMS_0_Q

>  <N_constrained_atoms>  (1104) 
20.0

>  <ref_url>  (1104) 
nan

>  <method>  (1104) 
nan

>  <comRMSD>  (1104) 
1.577678

>  <N_unconstrained_atoms>  (1104) 
7.0

>  <∆∆G>  (1104) 
-10.328715

>  <runtime>  (1104) 
61.863536

>  <generation_date>  (1104) 
nan

$$$$
5L9K_0_A_β-mArh-x0918_1_B_α
     RDKit          3D

 20 20  0  0  0  0  0  0  0  0999 V2000
   -2.7720   19.9890   -7.3860 O   0  0  0  0  0  0  0  0  0  0  0  0
   -1.2230   19.9030   -7.8100 P   0  0  0  0  0  0  0  0  0  0  0  0
   -0.8990   19.1620   -6.5130 O   0  0  0  0  0  0  0  0  0  0  0  0
   -0.5180   18.6070   -8.5860 O   0  0  0  0  0  0  0  0  0  0  0  0
   -0.4230   21.3070   -7.6450 O   0  0  0  0  0  0  0  0  0  0  0  0
   -1.7930   18.1080   -5.8170 P   0  0  0  0  0  0  0  0  0  0  0  0
   -1.2050   22.3970   -7.9910 C   0  0  0  0  0  0  0  0  0  0  0  0
   -0.5610   17.0200   -5.6280 O   0  0  0  0  0  0  0  0  0  0  0  0
   -2.1580   19.1630   -4.6810 O   0  0  0  0  0  0  0  0  0  0  0  0
   -2.8270   17.9010   -7.0800 O   0  0  0  0  0  0  0  0  0  0  0  0
   -2.4140   22.1070   -8.8370 C   0  0  0  0  0  0  0  0  0  0  0  0
   -3.4830   23.1120   -9.0710 C   0  0  0  0  0  0  0  0  0  0  0  0
   -4.0520   23.4590  -10.4060 C   0  0  0  0  0  0  0  0  0  0  0  0
   -3.6350   24.7020  -10.9840 N   0  0  0  0  0  0  0  0  0  0  0  0
   -3.9500   25.2320  -12.2930 C   0  0  0  0  0  0  0  0  0  0  0  0
   -5.1230   24.9550  -12.9060 C   0  0  0  0  0  0  0  0  0  0  0  0
   -3.0420   26.0480  -12.9740 C   0  0  0  0  0  0  0  0  0  0  0  0
   -5.4490   25.4330  -14.1510 C   0  0  0  0  0  0  0  0  0  0  0  0
   -3.3680   26.5210  -14.2190 C   0  0  0  0  0  0  0  0  0  0  0  0
   -4.5570   26.2170  -14.7970 N   0  0  0  0  0  0  0  0  0  0  0  0
  1  2  1  0
  2  3  1  0
  2  4  1  0
  2  5  1  0
  3  6  1  0
  5  7  1  0
  6  8  1  0
  6  9  1  0
  6 10  1  0
  7 11  1  0
 11 12  1  0
 12 13  1  0
 13 14  1  0
 14 15  1  0
 15 16  2  0
 15 17  1  0
 16 18  1  0
 17 19  2  0
 18 20  2  0
 19 20  1  0
M  CHG  2   4  -1   9  -1
M  END
>  <%Rank>  (1105) 
84.274809

>  <N_hits>  (1105) 
2

>  <submitter_name>  (1105) 
nan

>  <original SMILES>  (1105) 
nan

>  <∆G_unbound>  (1105) 
1.236667

>  <∆G_bound>  (1105) 
-6.913059

>  <regarded>  (1105) 
5L9K_0_A_β,mArh-x0918_1_B_α

>  <ref_pdb>  (1105) 
nan

>  <smiles>  (1105) 
[O-][PH](O)(O)O[PH]([O-])(O)OCCCCNc1ccncc1

>  <submitter_email>  (1105) 
nan

>  <disregarded>  (1105) 


>  <LE>  (1105) 
-0.407486

>  <submitter_institution>  (1105) 
nan

>  <ref_mols>  (1105) 
5L9K_0_A,mArh-x0918_1_B

>  <N_constrained_atoms>  (1105) 
16.0

>  <ref_url>  (1105) 
nan

>  <method>  (1105) 
nan

>  <comRMSD>  (1105) 
1.568815

>  <N_unconstrained_atoms>  (1105) 
4.0

>  <∆∆G>  (1105) 
-8.149726

>  <runtime>  (1105) 
31.822861

>  <generation_date>  (1105) 
nan

$$$$
mArh-5cms_G_3_G_γ-mArh-5cms_B_1_B_α
     RDKit          3D

 25 27  0  0  0  0  0  0  0  0999 V2000
   -3.9610   15.5190    1.5810 N   0  0  0  0  0  0  0  0  0  0  0  0
   -2.8760   14.9140    0.8070 C   0  0  1  0  0  0  0  0  0  0  0  0
   -2.6050   15.6550   -0.5310 C   0  0  1  0  0  0  0  0  0  0  0  0
   -1.7450   15.0780    1.6750 N   0  0  0  0  0  0  0  0  0  0  0  0
   -1.1990   15.3650   -1.0360 C   0  0  2  0  0  0  0  0  0  0  0  0
   -3.4360   15.2810   -1.7290 N   0  0  0  0  0  0  0  0  0  0  0  0
   -0.5640   14.4160    1.1480 C   0  0  0  0  0  0  0  0  0  0  0  0
   -1.4210   14.3730   -2.0920 N   0  0  0  0  0  0  0  0  0  0  0  0
   -2.4820   15.0380   -2.8480 C   0  0  2  0  0  0  0  0  0  0  0  0
   -0.1620   14.9770   -0.1200 N   0  0  0  0  0  0  0  0  0  0  0  0
   -1.9280   16.3330   -3.5550 C   0  0  0  0  0  0  0  0  0  0  0  0
   -2.2050   16.8050   -5.0380 C   0  0  0  0  0  0  0  0  0  0  0  0
   -1.7050   18.2700   -5.4220 C   0  0  0  0  0  0  0  0  0  0  0  0
   -2.3080   19.0230   -6.6740 C   0  0  0  0  0  0  0  0  0  0  0  0
   -2.7910   20.5210   -6.4680 C   0  0  0  0  0  0  0  0  0  0  0  0
   -2.7030   21.6490   -7.6020 C   0  0  0  0  0  0  0  0  0  0  0  0
   -3.4730   21.4830   -8.9620 C   0  0  0  0  0  0  0  0  0  0  0  0
   -4.0930   22.5810   -9.8580 C   0  0  2  0  0  0  0  0  0  0  0  0
   -5.3060   23.1800   -9.5310 O   0  0  0  0  0  0  0  0  0  0  0  0
   -4.4990   22.3720  -11.4000 C   0  0  1  0  0  0  0  0  0  0  0  0
   -5.6980   21.7800  -11.7820 O   0  0  0  0  0  0  0  0  0  0  0  0
   -4.9100   24.2500  -10.3610 C   0  0  2  0  0  0  0  0  0  0  0  0
   -4.7260   23.8130  -11.8020 C   0  0  2  0  0  0  0  0  0  0  0  0
   -3.6160   24.3080   -9.8790 O   0  0  0  0  0  0  0  0  0  0  0  0
   -5.8530   23.9600  -12.6320 O   0  0  0  0  0  0  0  0  0  0  0  0
  2  1  1  1
  2  3  1  0
  2  4  1  0
  3  5  1  0
  3  6  1  6
  4  7  1  0
  5  8  1  6
  6  9  1  0
  8  9  1  0
  5 10  1  0
  7 10  1  0
  9 11  1  1
 11 12  1  0
 12 13  1  0
 13 14  1  0
 14 15  1  0
 15 16  1  0
 16 17  1  0
 18 17  1  1
 18 19  1  0
 18 20  1  0
 20 21  1  1
 19 22  1  0
 20 23  1  0
 22 23  1  0
 22 24  1  1
 23 25  1  6
M  END
>  <%Rank>  (1106) 
84.351145

>  <N_hits>  (1106) 
2

>  <submitter_name>  (1106) 
nan

>  <original SMILES>  (1106) 
nan

>  <∆G_unbound>  (1106) 
2.610404

>  <∆G_bound>  (1106) 
0.057171

>  <regarded>  (1106) 
mArh-5cms_G_3_G_γ,mArh-5cms_B_1_B_α

>  <ref_pdb>  (1106) 
nan

>  <smiles>  (1106) 
NC1NCNC2NC(CCCCCCCC3OC(O)C(O)C3O)NC12

>  <submitter_email>  (1106) 
nan

>  <disregarded>  (1106) 


>  <LE>  (1106) 
-0.102129

>  <submitter_institution>  (1106) 
nan

>  <ref_mols>  (1106) 
mArh-5cms_G_3_G,mArh-5cms_B_1_B

>  <N_constrained_atoms>  (1106) 
19.0

>  <ref_url>  (1106) 
nan

>  <method>  (1106) 
nan

>  <comRMSD>  (1106) 
1.448372

>  <N_unconstrained_atoms>  (1106) 
6.0

>  <∆∆G>  (1106) 
-2.553233

>  <runtime>  (1106) 
43.279343

>  <generation_date>  (1106) 
nan

$$$$
mArh-EU0569_0_A_α-5CMS_0_H_α
     RDKit          3D

 29 31  0  0  0  0  0  0  0  0999 V2000
   -7.6820   15.0810    4.3060 N   0  0  0  0  0  0  0  0  0  0  0  0
   -8.2630   14.9740    3.0830 C   0  0  0  0  0  0  0  0  0  0  0  0
   -9.4910   15.0130    2.9970 O   0  0  0  0  0  0  0  0  0  0  0  0
   -7.3790   14.8410    1.8880 C   0  0  0  0  0  0  0  0  0  0  0  0
   -7.9450   14.6850    0.5110 C   0  0  0  0  0  0  0  0  0  0  0  0
   -6.0500   14.8990    2.0710 C   0  0  0  0  0  0  0  0  0  0  0  0
   -7.0790   15.0490   -0.5860 O   0  0  0  0  0  0  0  0  0  0  0  0
   -5.1790   14.8330    0.8920 C   0  0  0  0  0  0  0  0  0  0  0  0
   -5.7260   14.9170   -0.3920 C   0  0  0  0  0  0  0  0  0  0  0  0
   -3.8020   14.6970    1.0360 C   0  0  0  0  0  0  0  0  0  0  0  0
   -2.9740   14.6400   -0.0910 C   0  0  0  0  0  0  0  0  0  0  0  0
   -4.8920   14.8640   -1.5420 C   0  0  0  0  0  0  0  0  0  0  0  0
   -3.4850   14.7190   -1.4000 C   0  0  0  0  0  0  0  0  0  0  0  0
   -2.4440   14.6290   -2.5420 C   0  0  0  0  0  0  0  0  0  0  0  0
   -2.8770   14.7390   -4.0300 C   0  0  0  0  0  0  0  0  0  0  0  0
   -2.9650   16.1660   -4.6000 C   0  0  0  0  0  0  0  0  0  0  0  0
   -1.9210   16.7690   -5.5760 C   0  0  0  0  0  0  0  0  0  0  0  0
   -1.5680   18.2810   -5.4210 C   0  0  0  0  0  0  0  0  0  0  0  0
   -1.2590   19.0300   -6.7540 C   0  0  0  0  0  0  0  0  0  0  0  0
   -2.0360   20.3640   -6.9730 C   0  0  0  0  0  0  0  0  0  0  0  0
   -1.8760   21.1060   -8.3330 C   0  0  0  0  0  0  0  0  0  0  0  0
   -3.1360   21.8790   -8.7900 C   0  0  2  0  0  0  0  0  0  0  0  0
   -3.4960   21.6320  -10.1560 O   0  0  0  0  0  0  0  0  0  0  0  0
   -3.1720   23.4070   -8.6240 C   0  0  1  0  0  0  0  0  0  0  0  0
   -1.8780   23.9730   -8.4850 O   0  0  0  0  0  0  0  0  0  0  0  0
   -4.4590   22.6190  -10.5080 C   0  0  2  0  0  0  0  0  0  0  0  0
   -4.1150   23.8920   -9.7900 C   0  0  2  0  0  0  0  0  0  0  0  0
   -5.7370   22.2960  -10.0620 O   0  0  0  0  0  0  0  0  0  0  0  0
   -3.7050   24.8390  -10.8120 O   0  0  0  0  0  0  0  0  0  0  0  0
  1  2  1  0
  2  3  2  0
  2  4  1  0
  4  5  1  0
  4  6  2  0
  5  7  1  0
  6  8  1  0
  7  9  1  0
  8  9  2  0
  8 10  1  0
 10 11  2  0
  9 12  1  0
 11 13  1  0
 12 13  2  0
 13 14  1  0
 14 15  1  0
 15 16  1  0
 16 17  1  0
 17 18  1  0
 18 19  1  0
 19 20  1  0
 20 21  1  0
 22 21  1  6
 22 23  1  0
 22 24  1  0
 24 25  1  6
 23 26  1  0
 24 27  1  0
 26 27  1  0
 26 28  1  1
 27 29  1  6
M  END
>  <%Rank>  (1107) 
84.427481

>  <N_hits>  (1107) 
2

>  <submitter_name>  (1107) 
nan

>  <original SMILES>  (1107) 
nan

>  <∆G_unbound>  (1107) 
0.331866

>  <∆G_bound>  (1107) 
-6.569558

>  <regarded>  (1107) 
mArh-EU0569_0_A_α,5CMS_0_H_α

>  <ref_pdb>  (1107) 
nan

>  <smiles>  (1107) 
NC(=O)C1=Cc2ccc(CCCCCCCCC3OC(O)C(O)C3O)cc2OC1

>  <submitter_email>  (1107) 
nan

>  <disregarded>  (1107) 


>  <LE>  (1107) 
-0.23798

>  <submitter_institution>  (1107) 
nan

>  <ref_mols>  (1107) 
mArh-EU0569_0_A,5CMS_0_H

>  <N_constrained_atoms>  (1107) 
22.0

>  <ref_url>  (1107) 
nan

>  <method>  (1107) 
nan

>  <comRMSD>  (1107) 
1.571555

>  <N_unconstrained_atoms>  (1107) 
7.0

>  <∆∆G>  (1107) 
-6.901424

>  <runtime>  (1107) 
44.469601

>  <generation_date>  (1107) 
nan

$$$$
mArh-5fud_A_0_A_α-mArh-5cms_C_2_C_α
     RDKit          3D

 20 21  0  0  0  0  0  0  0  0999 V2000
   -2.1060   18.5780   -7.1010 O   0  0  0  0  0  0  0  0  0  0  0  0
   -1.6240   19.7600   -7.8040 S   0  0  0  0  0  0  0  0  0  0  0  0
   -0.6220   20.4960   -7.0420 O   0  0  0  0  0  0  0  0  0  0  0  0
   -1.1630   19.3340   -9.1040 O   0  0  0  0  0  0  0  0  0  0  0  0
   -3.0760   20.9320   -7.8820 C   0  0  1  0  0  0  0  0  0  0  0  0
   -2.8530   21.8940   -6.7670 C   0  0  0  0  0  0  0  0  0  0  0  0
   -3.9130   21.6210   -9.1070 C   0  0  1  0  0  0  0  0  0  0  0  0
   -4.0860   22.5520   -6.3680 N   0  0  0  0  0  0  0  0  0  0  0  0
   -4.5210   22.8780   -8.6780 O   0  0  0  0  0  0  0  0  0  0  0  0
   -3.5120   21.9910  -10.5730 C   0  0  1  0  0  0  0  0  0  0  0  0
   -4.3330   21.6420  -11.6650 O   0  0  0  0  0  0  0  0  0  0  0  0
   -5.3020   21.8050   -6.7490 C   0  0  0  0  0  0  0  0  0  0  0  0
   -4.0250   23.9180   -6.8720 C   0  0  0  0  0  0  0  0  0  0  0  0
   -4.9940   23.5570   -9.8510 C   0  0  2  0  0  0  0  0  0  0  0  0
   -3.7980   23.5030  -10.6830 C   0  0  2  0  0  0  0  0  0  0  0  0
   -5.2700   24.9150   -9.5680 O   0  0  0  0  0  0  0  0  0  0  0  0
   -3.9990   23.9020  -12.0520 O   0  0  0  0  0  0  0  0  0  0  0  0
   -5.9720   22.3250   -8.0160 C   0  0  0  0  0  0  0  0  0  0  0  0
   -5.3710   24.5210   -7.1930 C   0  0  0  0  0  0  0  0  0  0  0  0
   -6.3360   23.7020   -7.8920 O   0  0  0  0  0  0  0  0  0  0  0  0
  1  2  2  0
  2  3  2  0
  2  4  1  0
  2  5  1  0
  5  6  1  1
  5  7  1  0
  6  8  1  0
  7  9  1  1
  7 10  1  0
 10 11  1  6
  8 12  1  0
  8 13  1  0
  9 14  1  0
 10 15  1  0
 14 15  1  0
 14 16  1  1
 15 17  1  6
 12 18  1  0
 13 19  1  0
 18 20  1  0
 19 20  1  0
M  CHG  1   4  -1
M  END
>  <%Rank>  (1108) 
84.503817

>  <N_hits>  (1108) 
2

>  <submitter_name>  (1108) 
nan

>  <original SMILES>  (1108) 
nan

>  <∆G_unbound>  (1108) 
1.91821

>  <∆G_bound>  (1108) 
0.874516

>  <regarded>  (1108) 
mArh-5fud_A_0_A_α,mArh-5cms_C_2_C_α

>  <ref_pdb>  (1108) 
nan

>  <smiles>  (1108) 
O=S(=O)([O-])C(CN1CCOCC1)C1OC(O)C(O)C1O

>  <submitter_email>  (1108) 
nan

>  <disregarded>  (1108) 


>  <LE>  (1108) 
-0.052185

>  <submitter_institution>  (1108) 
nan

>  <ref_mols>  (1108) 
mArh-5fud_A_0_A,mArh-5cms_C_2_C

>  <N_constrained_atoms>  (1108) 
20.0

>  <ref_url>  (1108) 
nan

>  <method>  (1108) 
nan

>  <comRMSD>  (1108) 
1.602673

>  <N_unconstrained_atoms>  (1108) 
0.0

>  <∆∆G>  (1108) 
-1.043694

>  <runtime>  (1108) 
52.49435

>  <generation_date>  (1108) 
nan

$$$$
3VFQ_0_A_γ-3VFQ_0_A_β
     RDKit          3D

 16 16  0  0  0  0  0  0  0  0999 V2000
   -4.6620   11.5730   -1.9440 O   0  0  0  0  0  0  0  0  0  0  0  0
   -4.7240   12.9350   -2.2100 C   0  0  1  0  0  0  0  0  0  0  0  0
   -3.8600   13.7650   -1.2700 C   0  0  0  0  0  0  0  0  0  0  0  0
   -4.1310   13.2750   -3.5400 C   0  0  2  0  0  0  0  0  0  0  0  0
   -2.9210   12.5840   -3.6600 O   0  0  0  0  0  0  0  0  0  0  0  0
   -3.3070   14.7940   -2.0760 O   0  0  0  0  0  0  0  0  0  0  0  0
   -3.9430   14.7240   -3.3140 C   0  0  1  0  0  0  0  0  0  0  0  0
   -3.1830   15.4490   -4.4300 C   0  0  0  0  0  0  0  0  0  0  0  0
   -3.9840   15.4870   -5.9910 P   0  0  0  0  0  0  0  0  0  0  0  0
   -3.6360   16.9570   -6.3490 O   0  0  0  0  0  0  0  0  0  0  0  0
   -5.6300   15.8920   -6.2080 O   0  0  0  0  0  0  0  0  0  0  0  0
   -3.4170   14.9130   -7.3430 O   0  0  0  0  0  0  0  0  0  0  0  0
   -2.2570   17.7960   -6.2260 P   0  0  0  0  0  0  0  0  0  0  0  0
   -2.8910   19.1230   -6.6700 O   0  0  0  0  0  0  0  0  0  0  0  0
   -1.7650   18.5720   -4.8370 O   0  0  0  0  0  0  0  0  0  0  0  0
   -1.2900   17.9150   -7.5140 O   0  0  0  0  0  0  0  0  0  0  0  0
  2  1  1  1
  2  3  1  0
  2  4  1  0
  4  5  1  1
  3  6  1  0
  4  7  1  0
  6  7  1  0
  7  8  1  6
  8  9  1  0
  9 10  1  0
  9 11  1  0
  9 12  1  0
 10 13  1  0
 13 14  1  0
 13 15  1  0
 13 16  1  0
M  CHG  2  11  -1  15  -1
M  END
>  <%Rank>  (1109) 
84.580153

>  <N_hits>  (1109) 
2

>  <submitter_name>  (1109) 
nan

>  <original SMILES>  (1109) 
nan

>  <∆G_unbound>  (1109) 
0.683631

>  <∆G_bound>  (1109) 
-0.716032

>  <regarded>  (1109) 
3VFQ_0_A_γ,3VFQ_0_A_β

>  <ref_pdb>  (1109) 
nan

>  <smiles>  (1109) 
[O-][PH](O)(O)O[PH]([O-])(O)CC1OCC(O)C1O

>  <submitter_email>  (1109) 
nan

>  <disregarded>  (1109) 


>  <LE>  (1109) 
-0.087479

>  <submitter_institution>  (1109) 
nan

>  <ref_mols>  (1109) 
3VFQ_0_A,3VFQ_0_A

>  <N_constrained_atoms>  (1109) 
16.0

>  <ref_url>  (1109) 
nan

>  <method>  (1109) 
nan

>  <comRMSD>  (1109) 
1.53904

>  <N_unconstrained_atoms>  (1109) 
0.0

>  <∆∆G>  (1109) 
-1.399663

>  <runtime>  (1109) 
29.834621

>  <generation_date>  (1109) 
nan

$$$$
mArh-x0631_0_A_α-mArh-4iqy_B_0_B_γ
     RDKit          3D

 21 22  0  0  0  0  0  0  0  0999 V2000
    0.5480    9.1040  -12.2020 N   0  0  0  0  0  0  0  0  0  0  0  0
    1.7560    9.4620  -11.5300 C   0  0  2  0  0  0  0  0  0  0  0  0
    2.5660    8.3110  -11.5420 O   0  0  0  0  0  0  0  0  0  0  0  0
    1.2350    9.6770  -10.0700 C   0  0  0  0  0  0  0  0  0  0  0  0
    2.4930   10.5950  -12.3660 C   0  0  1  0  0  0  0  0  0  0  0  0
    0.7900   11.0330   -9.5270 C   0  0  0  0  0  0  0  0  0  0  0  0
    3.8190   10.1030  -12.7450 O   0  0  0  0  0  0  0  0  0  0  0  0
    1.9160   11.0760  -13.6930 C   0  0  0  0  0  0  0  0  0  0  0  0
    0.0450   11.1570   -8.1640 C   0  0  0  0  0  0  0  0  0  0  0  0
    4.0750   10.3820  -14.1250 C   0  0  0  0  0  0  0  0  0  0  0  0
    3.1470   11.5090  -14.4590 C   0  0  0  0  0  0  0  0  0  0  0  0
    0.8720   11.3210   -6.8620 C   0  0  0  0  0  0  0  0  0  0  0  0
    1.1630   12.7310   -6.3130 C   0  0  0  0  0  0  0  0  0  0  0  0
    0.9580   13.0400   -4.9360 O   0  0  0  0  0  0  0  0  0  0  0  0
    0.0600   14.1840   -4.8260 C   0  0  2  0  0  0  0  0  0  0  0  0
    0.7340   15.4580   -4.2780 C   0  0  1  0  0  0  0  0  0  0  0  0
   -0.9070   13.7700   -3.7450 C   0  0  1  0  0  0  0  0  0  0  0  0
   -0.6750   12.4100   -3.4680 O   0  0  0  0  0  0  0  0  0  0  0  0
    0.6110   16.6580   -5.2160 C   0  0  0  0  0  0  0  0  0  0  0  0
   -0.5940   14.6600   -2.5570 C   0  0  0  0  0  0  0  0  0  0  0  0
    0.0490   15.8240   -3.0670 O   0  0  0  0  0  0  0  0  0  0  0  0
  2  1  1  6
  2  3  1  0
  2  4  1  0
  2  5  1  0
  4  6  1  0
  5  7  1  0
  5  8  1  6
  6  9  1  0
  7 10  1  0
  8 11  1  0
 10 11  1  0
  9 12  1  0
 12 13  1  0
 13 14  1  0
 15 14  1  1
 15 16  1  0
 15 17  1  0
 17 18  1  1
 16 19  1  6
 17 20  1  0
 16 21  1  0
 20 21  1  0
M  END
>  <%Rank>  (1110) 
84.656489

>  <N_hits>  (1110) 
2

>  <submitter_name>  (1110) 
nan

>  <original SMILES>  (1110) 
nan

>  <∆G_unbound>  (1110) 
1.406774

>  <∆G_bound>  (1110) 
-5.761194

>  <regarded>  (1110) 
mArh-x0631_0_A_α,mArh-4iqy_B_0_B_γ

>  <ref_pdb>  (1110) 
nan

>  <smiles>  (1110) 
CC1OCC(O)C1OCCCCCC(N)(O)C1CCCO1

>  <submitter_email>  (1110) 
nan

>  <disregarded>  (1110) 


>  <LE>  (1110) 
-0.341332

>  <submitter_institution>  (1110) 
nan

>  <ref_mols>  (1110) 
mArh-x0631_0_A,mArh-4iqy_B_0_B

>  <N_constrained_atoms>  (1110) 
16.0

>  <ref_url>  (1110) 
nan

>  <method>  (1110) 
nan

>  <comRMSD>  (1110) 
1.511592

>  <N_unconstrained_atoms>  (1110) 
5.0

>  <∆∆G>  (1110) 
-7.167969

>  <runtime>  (1110) 
28.472451

>  <generation_date>  (1110) 
nan

$$$$
5CMS_0_F_δ-5CB5_0_D_α
     RDKit          3D

 24 26  0  0  0  0  0  0  0  0999 V2000
   -3.6030   15.4320    1.6040 N   0  0  0  0  0  0  0  0  0  0  0  0
   -2.5070   14.6670    1.0460 C   0  0  1  0  0  0  0  0  0  0  0  0
   -2.4170   14.5740   -0.4900 C   0  0  2  0  0  0  0  0  0  0  0  0
   -1.3290   15.3220    1.5350 N   0  0  0  0  0  0  0  0  0  0  0  0
   -1.0520   15.1180   -0.8600 C   0  0  2  0  0  0  0  0  0  0  0  0
   -3.2030   15.3570   -1.4510 N   0  0  0  0  0  0  0  0  0  0  0  0
   -0.1010   14.6230    1.2160 C   0  0  0  0  0  0  0  0  0  0  0  0
   -1.0370   14.9430   -2.2950 N   0  0  0  0  0  0  0  0  0  0  0  0
   -2.4490   14.9880   -2.6850 C   0  0  2  0  0  0  0  0  0  0  0  0
   -0.0000   14.4010   -0.2110 N   0  0  0  0  0  0  0  0  0  0  0  0
   -2.7720   15.8830   -3.9210 C   0  0  0  0  0  0  0  0  0  0  0  0
   -1.7260   16.9210   -4.4520 C   0  0  0  0  0  0  0  0  0  0  0  0
   -2.0840   17.6400   -5.7900 C   0  0  0  0  0  0  0  0  0  0  0  0
   -2.1480   19.1960   -5.7080 C   0  0  0  0  0  0  0  0  0  0  0  0
   -3.1500   19.8320   -6.6940 C   0  0  0  0  0  0  0  0  0  0  0  0
   -4.1050   20.7460   -6.0970 O   0  0  0  0  0  0  0  0  0  0  0  0
   -4.8110   21.4960   -7.1010 C   0  0  2  0  0  0  0  0  0  0  0  0
   -4.3240   21.0910   -8.3700 O   0  0  0  0  0  0  0  0  0  0  0  0
   -4.5210   23.0130   -6.9520 C   0  0  2  0  0  0  0  0  0  0  0  0
   -5.7200   23.8180   -6.8710 O   0  0  0  0  0  0  0  0  0  0  0  0
   -3.3340   22.0360   -8.7600 C   0  0  1  0  0  0  0  0  0  0  0  0
   -3.8280   23.3780   -8.2690 C   0  0  1  0  0  0  0  0  0  0  0  0
   -1.9540   21.6960   -8.2010 C   0  0  0  0  0  0  0  0  0  0  0  0
   -4.7090   23.9970   -9.2030 O   0  0  0  0  0  0  0  0  0  0  0  0
  2  1  1  6
  2  3  1  0
  2  4  1  0
  3  5  1  0
  3  6  1  6
  4  7  1  0
  5  8  1  6
  6  9  1  0
  8  9  1  0
  5 10  1  0
  7 10  1  0
  9 11  1  6
 11 12  1  0
 12 13  1  0
 13 14  1  0
 14 15  1  0
 15 16  1  0
 17 16  1  1
 17 18  1  0
 17 19  1  0
 19 20  1  6
 18 21  1  0
 19 22  1  0
 21 22  1  0
 21 23  1  1
 22 24  1  6
M  END
>  <%Rank>  (1111) 
84.732824

>  <N_hits>  (1111) 
2

>  <submitter_name>  (1111) 
nan

>  <original SMILES>  (1111) 
nan

>  <∆G_unbound>  (1111) 
0.335171

>  <∆G_bound>  (1111) 
-8.732027

>  <regarded>  (1111) 
5CMS_0_F_δ,5CB5_0_D_α

>  <ref_pdb>  (1111) 
nan

>  <smiles>  (1111) 
CC1OC(OCCCCCC2NC3NCNC(N)C3N2)C(O)C1O

>  <submitter_email>  (1111) 
nan

>  <disregarded>  (1111) 


>  <LE>  (1111) 
-0.3778

>  <submitter_institution>  (1111) 
nan

>  <ref_mols>  (1111) 
5CMS_0_F,5CB5_0_D

>  <N_constrained_atoms>  (1111) 
19.0

>  <ref_url>  (1111) 
nan

>  <method>  (1111) 
nan

>  <comRMSD>  (1111) 
1.621663

>  <N_unconstrained_atoms>  (1111) 
5.0

>  <∆∆G>  (1111) 
-9.067198

>  <runtime>  (1111) 
42.305917

>  <generation_date>  (1111) 
nan

$$$$
5CB5_0_N_δ-5CB3_0_A_α
     RDKit          3D

 24 26  0  0  0  0  0  0  0  0999 V2000
   -3.7460   15.5770    1.5660 N   0  0  0  0  0  0  0  0  0  0  0  0
   -2.6710   14.8150    0.9570 C   0  0  1  0  0  0  0  0  0  0  0  0
   -2.5930   14.7650   -0.5930 C   0  0  2  0  0  0  0  0  0  0  0  0
   -1.4630   15.3800    1.4980 N   0  0  0  0  0  0  0  0  0  0  0  0
   -1.1400   14.9230   -0.9430 C   0  0  2  0  0  0  0  0  0  0  0  0
   -3.0720   15.7650   -1.5760 N   0  0  0  0  0  0  0  0  0  0  0  0
   -0.2680   14.6050    1.2240 C   0  0  0  0  0  0  0  0  0  0  0  0
   -1.2360   14.4810   -2.3050 N   0  0  0  0  0  0  0  0  0  0  0  0
   -2.2680   15.3810   -2.8090 C   0  0  2  0  0  0  0  0  0  0  0  0
   -0.2550   14.1320   -0.1450 N   0  0  0  0  0  0  0  0  0  0  0  0
   -1.5870   16.5750   -3.5540 C   0  0  0  0  0  0  0  0  0  0  0  0
   -1.3150   16.5510   -5.0720 C   0  0  0  0  0  0  0  0  0  0  0  0
   -2.1480   17.5250   -5.9660 C   0  0  0  0  0  0  0  0  0  0  0  0
   -2.0720   19.0600   -5.7000 C   0  0  0  0  0  0  0  0  0  0  0  0
   -3.0230   19.8660   -6.6290 C   0  0  0  0  0  0  0  0  0  0  0  0
   -3.9360   20.8040   -5.9850 O   0  0  0  0  0  0  0  0  0  0  0  0
   -4.7210   21.5390   -6.9540 C   0  0  2  0  0  0  0  0  0  0  0  0
   -4.4180   21.0380   -8.2520 O   0  0  0  0  0  0  0  0  0  0  0  0
   -4.3540   23.0520   -6.9560 C   0  0  2  0  0  0  0  0  0  0  0  0
   -5.4970   23.9270   -6.7890 O   0  0  0  0  0  0  0  0  0  0  0  0
   -3.4110   21.8910   -8.8010 C   0  0  1  0  0  0  0  0  0  0  0  0
   -3.7930   23.2890   -8.3670 C   0  0  1  0  0  0  0  0  0  0  0  0
   -2.0150   21.5060   -8.3150 C   0  0  0  0  0  0  0  0  0  0  0  0
   -4.7330   23.8850   -9.2680 O   0  0  0  0  0  0  0  0  0  0  0  0
  2  1  1  6
  2  3  1  0
  2  4  1  0
  3  5  1  0
  3  6  1  6
  4  7  1  0
  5  8  1  6
  6  9  1  0
  8  9  1  0
  5 10  1  0
  7 10  1  0
  9 11  1  1
 11 12  1  0
 12 13  1  0
 13 14  1  0
 14 15  1  0
 15 16  1  0
 17 16  1  1
 17 18  1  0
 17 19  1  0
 19 20  1  6
 18 21  1  0
 19 22  1  0
 21 22  1  0
 21 23  1  1
 22 24  1  6
M  END
>  <%Rank>  (1112) 
84.80916

>  <N_hits>  (1112) 
2

>  <submitter_name>  (1112) 
nan

>  <original SMILES>  (1112) 
nan

>  <∆G_unbound>  (1112) 
0.335171

>  <∆G_bound>  (1112) 
-8.249198

>  <regarded>  (1112) 
5CB5_0_N_δ,5CB3_0_A_α

>  <ref_pdb>  (1112) 
nan

>  <smiles>  (1112) 
CC1OC(OCCCCCC2NC3NCNC(N)C3N2)C(O)C1O

>  <submitter_email>  (1112) 
nan

>  <disregarded>  (1112) 


>  <LE>  (1112) 
-0.357682

>  <submitter_institution>  (1112) 
nan

>  <ref_mols>  (1112) 
5CB5_0_N,5CB3_0_A

>  <N_constrained_atoms>  (1112) 
19.0

>  <ref_url>  (1112) 
nan

>  <method>  (1112) 
nan

>  <comRMSD>  (1112) 
1.626406

>  <N_unconstrained_atoms>  (1112) 
5.0

>  <∆∆G>  (1112) 
-8.584369

>  <runtime>  (1112) 
39.436144

>  <generation_date>  (1112) 
nan

$$$$
5CMS_0_I_δ-4IQY_0_A_α
     RDKit          3D

 25 27  0  0  0  0  0  0  0  0999 V2000
   -4.0730   15.4870    1.5780 N   0  0  0  0  0  0  0  0  0  0  0  0
   -2.7710   15.4330    0.9190 C   0  0  2  0  0  0  0  0  0  0  0  0
   -2.8040   14.7280   -0.4340 C   0  0  2  0  0  0  0  0  0  0  0  0
   -1.8850   14.6900    1.7880 N   0  0  0  0  0  0  0  0  0  0  0  0
   -1.3650   14.7780   -0.8530 C   0  0  2  0  0  0  0  0  0  0  0  0
   -3.4380   15.4100   -1.5950 N   0  0  0  0  0  0  0  0  0  0  0  0
   -0.4990   14.5240    1.2800 C   0  0  0  0  0  0  0  0  0  0  0  0
   -1.4460   14.4560   -2.2480 N   0  0  0  0  0  0  0  0  0  0  0  0
   -2.3040   15.5920   -2.5220 C   0  0  1  0  0  0  0  0  0  0  0  0
   -0.4550   14.0410   -0.0760 N   0  0  0  0  0  0  0  0  0  0  0  0
   -2.6410   15.8250   -4.0030 C   0  0  0  0  0  0  0  0  0  0  0  0
   -1.7750   16.9480   -4.6330 C   0  0  0  0  0  0  0  0  0  0  0  0
   -2.2180   17.5740   -5.9640 C   0  0  0  0  0  0  0  0  0  0  0  0
   -1.9720   19.0760   -6.1040 C   0  0  0  0  0  0  0  0  0  0  0  0
   -0.9690   19.3580   -7.2370 C   0  0  0  0  0  0  0  0  0  0  0  0
   -0.7460   20.8130   -7.6370 C   0  0  0  0  0  0  0  0  0  0  0  0
   -1.8320   21.5250   -8.4300 C   0  0  0  0  0  0  0  0  0  0  0  0
   -2.9880   22.0430   -7.6020 C   0  0  2  0  0  0  0  0  0  0  0  0
   -4.0180   21.1100   -7.3950 O   0  0  0  0  0  0  0  0  0  0  0  0
   -3.7650   23.2750   -8.0500 C   0  0  1  0  0  0  0  0  0  0  0  0
   -4.4540   23.2430   -9.2920 O   0  0  0  0  0  0  0  0  0  0  0  0
   -5.0480   21.8340   -6.7330 C   0  0  1  0  0  0  0  0  0  0  0  0
   -4.6580   23.3170   -6.8140 C   0  0  2  0  0  0  0  0  0  0  0  0
   -6.2840   21.6180   -7.3860 O   0  0  0  0  0  0  0  0  0  0  0  0
   -5.8460   24.1040   -6.9540 O   0  0  0  0  0  0  0  0  0  0  0  0
  2  1  1  1
  2  3  1  0
  2  4  1  0
  3  5  1  0
  3  6  1  6
  4  7  1  0
  5  8  1  6
  6  9  1  0
  8  9  1  0
  5 10  1  0
  7 10  1  0
  9 11  1  6
 11 12  1  0
 12 13  1  0
 13 14  1  0
 14 15  1  0
 15 16  1  0
 16 17  1  0
 18 17  1  6
 18 19  1  0
 18 20  1  0
 20 21  1  6
 19 22  1  0
 20 23  1  0
 22 23  1  0
 22 24  1  6
 23 25  1  6
M  END
>  <%Rank>  (1113) 
84.885496

>  <N_hits>  (1113) 
2

>  <submitter_name>  (1113) 
nan

>  <original SMILES>  (1113) 
nan

>  <∆G_unbound>  (1113) 
2.610404

>  <∆G_bound>  (1113) 
-10.979936

>  <regarded>  (1113) 
5CMS_0_I_δ,4IQY_0_A_α

>  <ref_pdb>  (1113) 
nan

>  <smiles>  (1113) 
NC1NCNC2NC(CCCCCCCC3OC(O)C(O)C3O)NC12

>  <submitter_email>  (1113) 
nan

>  <disregarded>  (1113) 


>  <LE>  (1113) 
-0.543614

>  <submitter_institution>  (1113) 
nan

>  <ref_mols>  (1113) 
5CMS_0_I,4IQY_0_A

>  <N_constrained_atoms>  (1113) 
19.0

>  <ref_url>  (1113) 
nan

>  <method>  (1113) 
nan

>  <comRMSD>  (1113) 
1.69438

>  <N_unconstrained_atoms>  (1113) 
6.0

>  <∆∆G>  (1113) 
-13.59034

>  <runtime>  (1113) 
39.492787

>  <generation_date>  (1113) 
nan

$$$$
mArh-x0766_1_B_α-5CMS_0_Q_α
     RDKit          3D

 25 27  0  0  0  0  0  0  0  0999 V2000
   -7.3430   26.2640  -13.6810 C   0  0  0  0  0  0  0  0  0  0  0  0
   -6.5670   25.2110  -14.0510 O   0  0  0  0  0  0  0  0  0  0  0  0
   -5.6040   24.7430  -13.0900 C   0  0  0  0  0  0  0  0  0  0  0  0
   -8.3100   26.6700  -14.3150 O   0  0  0  0  0  0  0  0  0  0  0  0
   -6.8630   26.8730  -12.3890 C   0  0  2  0  0  0  0  0  0  0  0  0
   -7.7410   26.4530  -11.2050 C   0  0  0  0  0  0  0  0  0  0  0  0
   -7.0630   28.3840  -12.4910 C   0  0  1  0  0  0  0  0  0  0  0  0
   -6.1860   23.7690  -12.0480 C   0  0  0  0  0  0  0  0  0  0  0  0
   -8.5300   27.7140  -10.8990 C   0  0  0  0  0  0  0  0  0  0  0  0
   -7.4580   28.7880  -11.0950 C   0  0  0  0  0  0  0  0  0  0  0  0
   -5.9800   29.0920  -13.2350 C   0  0  0  0  0  0  0  0  0  0  0  0
   -5.0010   23.1850  -11.2830 C   0  0  0  0  0  0  0  0  0  0  0  0
   -4.6190   29.0250  -12.9960 C   0  0  0  0  0  0  0  0  0  0  0  0
   -6.2630   29.9470  -14.3450 C   0  0  0  0  0  0  0  0  0  0  0  0
   -5.2050   22.4120  -10.0980 O   0  0  0  0  0  0  0  0  0  0  0  0
   -5.1410   30.4850  -14.9060 C   0  0  0  0  0  0  0  0  0  0  0  0
   -3.7280   29.9730  -14.1070 S   0  0  0  0  0  0  0  0  0  0  0  0
   -3.9140   22.1620   -9.5030 C   0  0  2  0  0  0  0  0  0  0  0  0
   -3.8440   21.2950   -8.3890 O   0  0  0  0  0  0  0  0  0  0  0  0
   -3.3830   23.4790   -8.9050 C   0  0  1  0  0  0  0  0  0  0  0  0
   -4.4500   24.2040   -8.3750 O   0  0  0  0  0  0  0  0  0  0  0  0
   -2.6000   21.5910   -7.6910 C   0  0  2  0  0  0  0  0  0  0  0  0
   -2.3990   23.0830   -7.7790 C   0  0  1  0  0  0  0  0  0  0  0  0
   -1.3960   20.8130   -8.1990 C   0  0  0  0  0  0  0  0  0  0  0  0
   -1.0150   23.3590   -7.9300 O   0  0  0  0  0  0  0  0  0  0  0  0
  1  2  1  0
  2  3  1  0
  1  4  2  0
  5  1  1  6
  5  6  1  0
  5  7  1  0
  3  8  1  0
  6  9  1  0
  7 10  1  0
  9 10  1  0
  7 11  1  1
  8 12  1  0
 11 13  2  0
 11 14  1  0
 12 15  1  0
 14 16  2  0
 13 17  1  0
 16 17  1  0
 18 15  1  1
 18 19  1  0
 18 20  1  0
 20 21  1  1
 19 22  1  0
 20 23  1  0
 22 23  1  0
 22 24  1  6
 23 25  1  6
M  END
>  <%Rank>  (1114) 
84.961832

>  <N_hits>  (1114) 
2

>  <submitter_name>  (1114) 
nan

>  <original SMILES>  (1114) 
nan

>  <∆G_unbound>  (1114) 
0.607858

>  <∆G_bound>  (1114) 
-3.707786

>  <regarded>  (1114) 
mArh-x0766_1_B_α,5CMS_0_Q_α

>  <ref_pdb>  (1114) 
nan

>  <smiles>  (1114) 
CC1OC(OCCCOC(=O)C2CCCC2c2ccsc2)C(O)C1O

>  <submitter_email>  (1114) 
nan

>  <disregarded>  (1114) 


>  <LE>  (1114) 
-0.172626

>  <submitter_institution>  (1114) 
nan

>  <ref_mols>  (1114) 
mArh-x0766_1_B,5CMS_0_Q

>  <N_constrained_atoms>  (1114) 
22.0

>  <ref_url>  (1114) 
nan

>  <method>  (1114) 
nan

>  <comRMSD>  (1114) 
1.665281

>  <N_unconstrained_atoms>  (1114) 
3.0

>  <∆∆G>  (1114) 
-4.315643

>  <runtime>  (1114) 
39.335462

>  <generation_date>  (1114) 
nan

$$$$
5CMS_0_R_γ-mArh-3vfq_B_0_A_β
     RDKit          3D

 18 18  0  0  0  0  0  0  0  0999 V2000
   -0.3530   12.3450   -4.1080 O   0  0  0  0  0  0  0  0  0  0  0  0
    0.3610   13.5450   -3.8450 C   0  0  2  0  0  0  0  0  0  0  0  0
   -0.3940   14.5430   -2.9930 C   0  0  0  0  0  0  0  0  0  0  0  0
    0.6360   14.3840   -5.0800 C   0  0  2  0  0  0  0  0  0  0  0  0
    1.6480   13.6440   -5.7850 O   0  0  0  0  0  0  0  0  0  0  0  0
    0.2400   15.8100   -3.2280 O   0  0  0  0  0  0  0  0  0  0  0  0
    1.1090   15.6810   -4.3810 C   0  0  2  0  0  0  0  0  0  0  0  0
    1.0860   16.9940   -5.1700 C   0  0  0  0  0  0  0  0  0  0  0  0
   -0.2200   17.2740   -5.8360 C   0  0  0  0  0  0  0  0  0  0  0  0
   -0.9110   18.4500   -5.4050 N   0  0  0  0  0  0  0  0  0  0  0  0
   -2.2820   18.2250   -6.2450 P   0  0  0  0  0  0  0  0  0  0  0  0
   -3.0140   19.6050   -6.4460 O   0  0  0  0  0  0  0  0  0  0  0  0
   -3.1040   17.0070   -5.6170 O   0  0  0  0  0  0  0  0  0  0  0  0
   -1.6850   17.9410   -7.6210 O   0  0  0  0  0  0  0  0  0  0  0  0
   -3.9930   15.7230   -6.0200 P   0  0  0  0  0  0  0  0  0  0  0  0
   -4.3070   15.0670   -4.6000 O   0  0  0  0  0  0  0  0  0  0  0  0
   -3.4570   14.8130   -6.9830 O   0  0  0  0  0  0  0  0  0  0  0  0
   -5.4800   16.0950   -6.4990 O   0  0  0  0  0  0  0  0  0  0  0  0
  2  1  1  6
  2  3  1  0
  2  4  1  0
  4  5  1  6
  3  6  1  0
  4  7  1  0
  6  7  1  0
  7  8  1  6
  8  9  1  0
  9 10  1  0
 10 11  2  3
 11 12  1  0
 11 13  1  0
 11 14  1  0
 13 15  1  0
 15 16  1  0
 15 17  2  0
 15 18  1  0
M  END
>  <%Rank>  (1115) 
85.038168

>  <N_hits>  (1115) 
2

>  <submitter_name>  (1115) 
nan

>  <original SMILES>  (1115) 
nan

>  <∆G_unbound>  (1115) 
0.503065

>  <∆G_bound>  (1115) 
-2.809338

>  <regarded>  (1115) 
5CMS_0_R_γ,mArh-3vfq_B_0_A_β

>  <ref_pdb>  (1115) 
nan

>  <smiles>  (1115) 
O=P(O)(O)OP(O)(O)=NCCC1OCC(O)C1O

>  <submitter_email>  (1115) 
nan

>  <disregarded>  (1115) 


>  <LE>  (1115) 
-0.184022

>  <submitter_institution>  (1115) 
nan

>  <ref_mols>  (1115) 
5CMS_0_R,mArh-3vfq_B_0_A

>  <N_constrained_atoms>  (1115) 
17.0

>  <ref_url>  (1115) 
nan

>  <method>  (1115) 
nan

>  <comRMSD>  (1115) 
1.615959

>  <N_unconstrained_atoms>  (1115) 
1.0

>  <∆∆G>  (1115) 
-3.312403

>  <runtime>  (1115) 
42.175034

>  <generation_date>  (1115) 
nan

$$$$
mArh-5cms_M_12_M_γ-mArh-3vfq_B_0_A_β
     RDKit          3D

 18 18  0  0  0  0  0  0  0  0999 V2000
   -1.4650   12.6700   -4.6550 O   0  0  0  0  0  0  0  0  0  0  0  0
   -0.3830   13.3720   -4.0670 C   0  0  2  0  0  0  0  0  0  0  0  0
   -0.7790   14.4510   -3.0740 C   0  0  0  0  0  0  0  0  0  0  0  0
    0.4320   14.1380   -5.1070 C   0  0  2  0  0  0  0  0  0  0  0  0
    1.6330   13.3640   -5.2710 O   0  0  0  0  0  0  0  0  0  0  0  0
    0.3300   15.3520   -3.0750 O   0  0  0  0  0  0  0  0  0  0  0  0
    0.6550   15.5300   -4.4700 C   0  0  2  0  0  0  0  0  0  0  0  0
   -0.2500   16.6180   -5.0280 C   0  0  0  0  0  0  0  0  0  0  0  0
    0.4590   17.7410   -5.7710 C   0  0  0  0  0  0  0  0  0  0  0  0
   -0.5020   18.3460   -6.6900 N   0  0  0  0  0  0  0  0  0  0  0  0
   -2.1130   18.1850   -6.2580 P   0  0  0  0  0  0  0  0  0  0  0  0
   -2.8580   19.5530   -6.5240 O   0  0  0  0  0  0  0  0  0  0  0  0
   -2.5910   17.2910   -5.0730 O   0  0  0  0  0  0  0  0  0  0  0  0
   -2.7330   17.2610   -7.3090 O   0  0  0  0  0  0  0  0  0  0  0  0
   -3.4740   15.9620   -5.3940 P   0  0  0  0  0  0  0  0  0  0  0  0
   -2.5210   14.7640   -5.7040 O   0  0  0  0  0  0  0  0  0  0  0  0
   -4.6040   16.1510   -6.3360 O   0  0  0  0  0  0  0  0  0  0  0  0
   -4.1290   15.4450   -4.0570 O   0  0  0  0  0  0  0  0  0  0  0  0
  2  1  1  6
  2  3  1  0
  2  4  1  0
  4  5  1  1
  3  6  1  0
  4  7  1  0
  6  7  1  0
  7  8  1  6
  8  9  1  0
  9 10  1  0
 10 11  2  3
 11 12  1  0
 11 13  1  0
 11 14  1  0
 13 15  1  0
 15 16  1  0
 15 17  2  0
 15 18  1  0
M  END
>  <%Rank>  (1116) 
85.114504

>  <N_hits>  (1116) 
2

>  <submitter_name>  (1116) 
nan

>  <original SMILES>  (1116) 
nan

>  <∆G_unbound>  (1116) 
0.503065

>  <∆G_bound>  (1116) 
-2.163733

>  <regarded>  (1116) 
mArh-5cms_M_12_M_γ,mArh-3vfq_B_0_A_β

>  <ref_pdb>  (1116) 
nan

>  <smiles>  (1116) 
O=P(O)(O)OP(O)(O)=NCCC1OCC(O)C1O

>  <submitter_email>  (1116) 
nan

>  <disregarded>  (1116) 


>  <LE>  (1116) 
-0.148155

>  <submitter_institution>  (1116) 
nan

>  <ref_mols>  (1116) 
mArh-5cms_M_12_M,mArh-3vfq_B_0_A

>  <N_constrained_atoms>  (1116) 
17.0

>  <ref_url>  (1116) 
nan

>  <method>  (1116) 
nan

>  <comRMSD>  (1116) 
1.616324

>  <N_unconstrained_atoms>  (1116) 
1.0

>  <∆∆G>  (1116) 
-2.666798

>  <runtime>  (1116) 
42.466338

>  <generation_date>  (1116) 
nan

$$$$
mArh-3vfq_B_0_A_α-4IQY_0_A_δ
     RDKit          3D

 26 28  0  0  0  0  0  0  0  0999 V2000
   -3.8170   20.3750   -7.1740 C   0  0  0  0  0  0  0  0  0  0  0  0
   -4.7030   21.0910   -8.1440 C   0  0  2  0  0  0  0  0  0  0  0  0
   -4.0220   22.1100   -8.8170 O   0  0  0  0  0  0  0  0  0  0  0  0
   -5.9470   21.7110   -7.6720 C   0  0  1  0  0  0  0  0  0  0  0  0
   -5.5510   22.6950   -6.7230 O   0  0  0  0  0  0  0  0  0  0  0  0
   -5.0290   22.5410   -9.7240 C   0  0  1  0  0  0  0  0  0  0  0  0
   -6.3760   22.1530   -9.0950 C   0  0  2  0  0  0  0  0  0  0  0  0
   -4.8880   23.9460   -9.8870 O   0  0  0  0  0  0  0  0  0  0  0  0
   -7.2890   23.2470   -9.1130 O   0  0  0  0  0  0  0  0  0  0  0  0
   -4.1800   22.3930   -6.2730 C   0  0  0  0  0  0  0  0  0  0  0  0
   -4.0530   20.9280   -5.7330 C   0  0  0  0  0  0  0  0  0  0  0  0
   -2.6500   20.2120   -5.4960 C   0  0  0  0  0  0  0  0  0  0  0  0
   -2.1710   18.8800   -6.2070 C   0  0  0  0  0  0  0  0  0  0  0  0
   -2.3000   17.4000   -5.6440 C   0  0  0  0  0  0  0  0  0  0  0  0
   -1.6710   16.8550   -4.3080 C   0  0  0  0  0  0  0  0  0  0  0  0
   -2.6620   16.1580   -3.3000 C   0  0  0  0  0  0  0  0  0  0  0  0
   -2.3840   14.7770   -2.6820 C   0  0  1  0  0  0  0  0  0  0  0  0
   -1.0730   14.6870   -2.0840 N   0  0  0  0  0  0  0  0  0  0  0  0
   -3.2590   14.5620   -1.5150 N   0  0  0  0  0  0  0  0  0  0  0  0
   -1.1650   15.4700   -0.8500 C   0  0  1  0  0  0  0  0  0  0  0  0
   -2.6520   15.4140   -0.4500 C   0  0  2  0  0  0  0  0  0  0  0  0
   -0.1400   14.9090   -0.0300 N   0  0  0  0  0  0  0  0  0  0  0  0
   -2.8690   14.9050    0.9920 C   0  0  2  0  0  0  0  0  0  0  0  0
   -3.9770   15.5020    1.7250 N   0  0  0  0  0  0  0  0  0  0  0  0
   -0.5140   14.4800    1.2760 C   0  0  0  0  0  0  0  0  0  0  0  0
   -1.6830   15.1740    1.7400 N   0  0  0  0  0  0  0  0  0  0  0  0
  2  1  1  1
  2  3  1  0
  2  4  1  0
  4  5  1  1
  3  6  1  0
  4  7  1  0
  6  7  1  0
  6  8  1  1
  7  9  1  1
  5 10  1  0
 10 11  1  0
 11 12  1  0
 12 13  1  0
 13 14  1  0
 14 15  1  0
 15 16  1  0
 17 16  1  1
 17 18  1  0
 17 19  1  0
 20 18  1  6
 21 19  1  6
 20 21  1  0
 20 22  1  0
 21 23  1  0
 23 24  1  1
 22 25  1  0
 23 26  1  0
 25 26  1  0
M  END
>  <%Rank>  (1117) 
85.19084

>  <N_hits>  (1117) 
2

>  <submitter_name>  (1117) 
nan

>  <original SMILES>  (1117) 
nan

>  <∆G_unbound>  (1117) 
0.970381

>  <∆G_bound>  (1117) 
-2.506162

>  <regarded>  (1117) 
mArh-3vfq_B_0_A_α,4IQY_0_A_δ

>  <ref_pdb>  (1117) 
nan

>  <smiles>  (1117) 
CC1OC(O)C(O)C1OCCCCCCCC1NC2NCNC(N)C2N1

>  <submitter_email>  (1117) 
nan

>  <disregarded>  (1117) 


>  <LE>  (1117) 
-0.133713

>  <submitter_institution>  (1117) 
nan

>  <ref_mols>  (1117) 
mArh-3vfq_B_0_A,4IQY_0_A

>  <N_constrained_atoms>  (1117) 
19.0

>  <ref_url>  (1117) 
nan

>  <method>  (1117) 
nan

>  <comRMSD>  (1117) 
1.517356

>  <N_unconstrained_atoms>  (1117) 
7.0

>  <∆∆G>  (1117) 
-3.476542

>  <runtime>  (1117) 
49.287354

>  <generation_date>  (1117) 
nan

$$$$
mArh-5cb5_M_1_M_γ-3VFQ_0_A_β
     RDKit          3D

 18 18  0  0  0  0  0  0  0  0999 V2000
   -0.0880   12.5690   -3.7090 O   0  0  0  0  0  0  0  0  0  0  0  0
   -0.5700   13.8590   -3.8390 C   0  0  1  0  0  0  0  0  0  0  0  0
   -0.1060   14.6290   -2.5830 C   0  0  0  0  0  0  0  0  0  0  0  0
    0.2310   14.5530   -4.9620 C   0  0  2  0  0  0  0  0  0  0  0  0
    1.1780   13.6810   -5.5100 O   0  0  0  0  0  0  0  0  0  0  0  0
    0.0920   15.9170   -3.0900 O   0  0  0  0  0  0  0  0  0  0  0  0
    0.8230   15.6890   -4.2640 C   0  0  2  0  0  0  0  0  0  0  0  0
    0.8980   16.9680   -4.9980 C   0  0  0  0  0  0  0  0  0  0  0  0
   -0.2090   17.9150   -5.1790 C   0  0  0  0  0  0  0  0  0  0  0  0
   -0.8900   17.5100   -6.3770 O   0  0  0  0  0  0  0  0  0  0  0  0
   -2.3160   18.1040   -6.2300 P   0  0  0  0  0  0  0  0  0  0  0  0
   -1.7970   19.6060   -6.5150 O   0  0  0  0  0  0  0  0  0  0  0  0
   -2.4500   17.3560   -4.8110 O   0  0  0  0  0  0  0  0  0  0  0  0
   -2.9280   17.1240   -7.3730 O   0  0  0  0  0  0  0  0  0  0  0  0
   -3.0520   15.8630   -4.7210 P   0  0  0  0  0  0  0  0  0  0  0  0
   -2.4140   14.5660   -5.5200 O   0  0  0  0  0  0  0  0  0  0  0  0
   -4.2840   15.4510   -3.6350 O   0  0  0  0  0  0  0  0  0  0  0  0
   -4.1000   16.0320   -5.8380 O   0  0  0  0  0  0  0  0  0  0  0  0
  2  1  1  1
  2  3  1  0
  2  4  1  0
  4  5  1  1
  3  6  1  0
  4  7  1  0
  6  7  1  0
  7  8  1  6
  8  9  1  0
  9 10  1  0
 10 11  1  0
 11 12  1  0
 11 13  1  0
 11 14  1  0
 13 15  1  0
 15 16  1  0
 15 17  1  0
 15 18  1  0
M  CHG  1  17  -1
M  END
>  <%Rank>  (1118) 
85.267176

>  <N_hits>  (1118) 
2

>  <submitter_name>  (1118) 
nan

>  <original SMILES>  (1118) 
nan

>  <∆G_unbound>  (1118) 
0.396427

>  <∆G_bound>  (1118) 
-1.337927

>  <regarded>  (1118) 
mArh-5cb5_M_1_M_γ,3VFQ_0_A_β

>  <ref_pdb>  (1118) 
nan

>  <smiles>  (1118) 
[O-][PH](O)(O)O[PH](O)(O)OCCC1OCC(O)C1O

>  <submitter_email>  (1118) 
nan

>  <disregarded>  (1118) 


>  <LE>  (1118) 
-0.096353

>  <submitter_institution>  (1118) 
nan

>  <ref_mols>  (1118) 
mArh-5cb5_M_1_M,3VFQ_0_A

>  <N_constrained_atoms>  (1118) 
17.0

>  <ref_url>  (1118) 
nan

>  <method>  (1118) 
nan

>  <comRMSD>  (1118) 
1.630253

>  <N_unconstrained_atoms>  (1118) 
1.0

>  <∆∆G>  (1118) 
-1.734354

>  <runtime>  (1118) 
45.717816

>  <generation_date>  (1118) 
nan

$$$$
5CB5_0_O_β-2FAV_0_B_β
     RDKit          3D

 10  9  0  0  0  0  0  0  0  0999 V2000
   -0.4580   21.4180   -7.6890 O   0  0  0  0  0  0  0  0  0  0  0  0
   -0.5560   19.7780   -7.7140 P   0  0  0  0  0  0  0  0  0  0  0  0
   -1.9920   19.0750   -7.3090 O   0  0  0  0  0  0  0  0  0  0  0  0
   -1.0180   19.9700   -9.1120 O   0  0  0  0  0  0  0  0  0  0  0  0
    0.6440   18.8440   -8.1830 O   0  0  0  0  0  0  0  0  0  0  0  0
   -1.8610   17.8260   -6.3610 P   0  0  0  0  0  0  0  0  0  0  0  0
   -0.4420   17.2070   -5.9000 O   0  0  0  0  0  0  0  0  0  0  0  0
   -1.9810   18.6200   -5.0850 O   0  0  0  0  0  0  0  0  0  0  0  0
   -3.2010   16.9190   -5.8790 O   0  0  0  0  0  0  0  0  0  0  0  0
    0.2610   17.8980   -4.5730 P   0  0  0  0  0  0  0  0  0  0  0  0
  1  2  1  0
  2  3  1  0
  2  4  1  0
  2  5  1  0
  3  6  1  0
  6  7  1  0
  6  8  1  0
  6  9  1  0
  7 10  1  0
M  CHG  2   4  -1   8  -1
M  END
>  <%Rank>  (1119) 
85.343511

>  <N_hits>  (1119) 
2

>  <submitter_name>  (1119) 
nan

>  <original SMILES>  (1119) 
nan

>  <∆G_unbound>  (1119) 
0.324667

>  <∆G_bound>  (1119) 
-4.908787

>  <regarded>  (1119) 
5CB5_0_O_β,2FAV_0_B_β

>  <ref_pdb>  (1119) 
nan

>  <smiles>  (1119) 
[O-][PH](O)(O)O[PH]([O-])(O)OP

>  <submitter_email>  (1119) 
nan

>  <disregarded>  (1119) 


>  <LE>  (1119) 
-0.523345

>  <submitter_institution>  (1119) 
nan

>  <ref_mols>  (1119) 
5CB5_0_O,2FAV_0_B

>  <N_constrained_atoms>  (1119) 
10.0

>  <ref_url>  (1119) 
nan

>  <method>  (1119) 
nan

>  <comRMSD>  (1119) 
1.691322

>  <N_unconstrained_atoms>  (1119) 
0.0

>  <∆∆G>  (1119) 
-5.233454

>  <runtime>  (1119) 
26.216955

>  <generation_date>  (1119) 
nan

$$$$
5CMS_0_O_δ-4IQY_0_B_α
     RDKit          3D

 25 27  0  0  0  0  0  0  0  0999 V2000
   -3.8440   15.4760    1.5840 N   0  0  0  0  0  0  0  0  0  0  0  0
   -2.5320   15.3750    0.9560 C   0  0  2  0  0  0  0  0  0  0  0  0
   -2.5740   14.7550   -0.4310 C   0  0  2  0  0  0  0  0  0  0  0  0
   -1.7250   14.5230    1.7960 N   0  0  0  0  0  0  0  0  0  0  0  0
   -1.1270   14.7140   -0.8270 C   0  0  2  0  0  0  0  0  0  0  0  0
   -3.1190   15.5590   -1.5590 N   0  0  0  0  0  0  0  0  0  0  0  0
   -0.3350   14.3470    1.3180 C   0  0  0  0  0  0  0  0  0  0  0  0
   -1.2210   14.4460   -2.2330 N   0  0  0  0  0  0  0  0  0  0  0  0
   -1.9440   15.6880   -2.4350 C   0  0  1  0  0  0  0  0  0  0  0  0
   -0.2730   13.9040   -0.0550 N   0  0  0  0  0  0  0  0  0  0  0  0
   -2.2110   16.0990   -3.8890 C   0  0  0  0  0  0  0  0  0  0  0  0
   -1.2970   17.2610   -4.3650 C   0  0  0  0  0  0  0  0  0  0  0  0
   -0.8940   17.2430   -5.8300 C   0  0  0  0  0  0  0  0  0  0  0  0
   -0.1460   18.4810   -6.3270 C   0  0  0  0  0  0  0  0  0  0  0  0
   -0.7810   19.1400   -7.5650 C   0  0  0  0  0  0  0  0  0  0  0  0
   -0.7420   20.6680   -7.5890 C   0  0  0  0  0  0  0  0  0  0  0  0
   -1.7750   21.4470   -8.4170 C   0  0  0  0  0  0  0  0  0  0  0  0
   -2.9450   22.0010   -7.6130 C   0  0  2  0  0  0  0  0  0  0  0  0
   -3.9710   21.0710   -7.3680 O   0  0  0  0  0  0  0  0  0  0  0  0
   -3.7410   23.2180   -8.0940 C   0  0  1  0  0  0  0  0  0  0  0  0
   -4.4490   23.1310   -9.3250 O   0  0  0  0  0  0  0  0  0  0  0  0
   -5.0090   21.8150   -6.7300 C   0  0  1  0  0  0  0  0  0  0  0  0
   -4.6230   23.2940   -6.8510 C   0  0  2  0  0  0  0  0  0  0  0  0
   -6.2470   21.5840   -7.3800 O   0  0  0  0  0  0  0  0  0  0  0  0
   -5.8200   24.0670   -6.9930 O   0  0  0  0  0  0  0  0  0  0  0  0
  2  1  1  1
  2  3  1  0
  2  4  1  0
  3  5  1  0
  3  6  1  6
  4  7  1  0
  5  8  1  6
  6  9  1  0
  8  9  1  0
  5 10  1  0
  7 10  1  0
  9 11  1  6
 11 12  1  0
 12 13  1  0
 13 14  1  0
 14 15  1  0
 15 16  1  0
 16 17  1  0
 18 17  1  6
 18 19  1  0
 18 20  1  0
 20 21  1  6
 19 22  1  0
 20 23  1  0
 22 23  1  0
 22 24  1  6
 23 25  1  6
M  END
>  <%Rank>  (1120) 
85.419847

>  <N_hits>  (1120) 
2

>  <submitter_name>  (1120) 
nan

>  <original SMILES>  (1120) 
nan

>  <∆G_unbound>  (1120) 
2.610404

>  <∆G_bound>  (1120) 
-11.110688

>  <regarded>  (1120) 
5CMS_0_O_δ,4IQY_0_B_α

>  <ref_pdb>  (1120) 
nan

>  <smiles>  (1120) 
NC1NCNC2NC(CCCCCCCC3OC(O)C(O)C3O)NC12

>  <submitter_email>  (1120) 
nan

>  <disregarded>  (1120) 


>  <LE>  (1120) 
-0.548844

>  <submitter_institution>  (1120) 
nan

>  <ref_mols>  (1120) 
5CMS_0_O,4IQY_0_B

>  <N_constrained_atoms>  (1120) 
19.0

>  <ref_url>  (1120) 
nan

>  <method>  (1120) 
nan

>  <comRMSD>  (1120) 
1.793445

>  <N_unconstrained_atoms>  (1120) 
6.0

>  <∆∆G>  (1120) 
-13.721092

>  <runtime>  (1120) 
37.941803

>  <generation_date>  (1120) 
nan

$$$$
5CB5_0_K_β-5CMS_0_C_α
     RDKit          3D

 17 17  0  0  0  0  0  0  0  0999 V2000
   -1.7760   21.0390   -9.0760 O   0  0  0  0  0  0  0  0  0  0  0  0
   -0.6680   20.3670   -7.9830 P   0  0  0  0  0  0  0  0  0  0  0  0
   -1.2210   19.8120   -6.5550 O   0  0  0  0  0  0  0  0  0  0  0  0
   -3.0080   21.5620   -8.6120 C   0  0  1  0  0  0  0  0  0  0  0  0
   -0.4400   21.7540   -7.4000 O   0  0  0  0  0  0  0  0  0  0  0  0
   -0.7570   18.9800   -8.6220 O   0  0  0  0  0  0  0  0  0  0  0  0
   -2.9890   22.6720   -7.8000 O   0  0  0  0  0  0  0  0  0  0  0  0
   -3.7540   22.1410   -9.8520 C   0  0  1  0  0  0  0  0  0  0  0  0
   -1.2480   18.3490   -6.0960 P   0  0  0  0  0  0  0  0  0  0  0  0
   -5.0800   21.9180   -9.7600 O   0  0  0  0  0  0  0  0  0  0  0  0
   -3.9760   23.5420   -8.1990 C   0  0  2  0  0  0  0  0  0  0  0  0
   -3.6180   23.6320   -9.5700 C   0  0  2  0  0  0  0  0  0  0  0  0
   -1.1200   16.8710   -5.7080 O   0  0  0  0  0  0  0  0  0  0  0  0
   -2.5130   18.0600   -7.0860 O   0  0  0  0  0  0  0  0  0  0  0  0
   -1.5930   18.7930   -4.5580 O   0  0  0  0  0  0  0  0  0  0  0  0
   -3.9380   24.7870   -7.6370 O   0  0  0  0  0  0  0  0  0  0  0  0
   -4.4120   24.3690  -10.4490 O   0  0  0  0  0  0  0  0  0  0  0  0
  1  2  1  0
  2  3  1  0
  4  1  1  6
  2  5  1  0
  2  6  1  0
  4  7  1  0
  4  8  1  0
  3  9  1  0
  8 10  1  1
  7 11  1  0
  8 12  1  0
 11 12  1  0
  9 13  1  0
  9 14  1  0
  9 15  1  0
 11 16  1  1
 12 17  1  6
M  CHG  2   5  -1  14  -1
M  END
>  <%Rank>  (1121) 
85.496183

>  <N_hits>  (1121) 
2

>  <submitter_name>  (1121) 
nan

>  <original SMILES>  (1121) 
nan

>  <∆G_unbound>  (1121) 
0.972863

>  <∆G_bound>  (1121) 
-3.227021

>  <regarded>  (1121) 
5CB5_0_K_β,5CMS_0_C_α

>  <ref_pdb>  (1121) 
nan

>  <smiles>  (1121) 
[O-][PH](O)(O)O[PH]([O-])(O)OC1OC(O)C(O)C1O

>  <submitter_email>  (1121) 
nan

>  <disregarded>  (1121) 


>  <LE>  (1121) 
-0.247052

>  <submitter_institution>  (1121) 
nan

>  <ref_mols>  (1121) 
5CB5_0_K,5CMS_0_C

>  <N_constrained_atoms>  (1121) 
17.0

>  <ref_url>  (1121) 
nan

>  <method>  (1121) 
nan

>  <comRMSD>  (1121) 
1.76475

>  <N_unconstrained_atoms>  (1121) 
0.0

>  <∆∆G>  (1121) 
-4.199884

>  <runtime>  (1121) 
41.263683

>  <generation_date>  (1121) 
nan

$$$$
mArh-4jca_0_A_α-mArh-5cb5_P_0_P_β
     RDKit          3D

 27 26  0  0  0  0  0  0  0  0999 V2000
   -0.7940    8.3000   -5.0930 C   0  0  0  0  0  0  0  0  0  0  0  0
   -0.9200    9.6550   -4.5200 C   0  0  0  0  0  0  0  0  0  0  0  0
    0.3160   10.2750   -3.8410 C   0  0  0  0  0  0  0  0  0  0  0  0
   -1.6400    7.4430   -5.2290 O   0  0  0  0  0  0  0  0  0  0  0  0
    0.4260    8.0800   -5.4440 O   0  0  0  0  0  0  0  0  0  0  0  0
    1.0310   11.2430   -4.7620 C   0  0  0  0  0  0  0  0  0  0  0  0
   -0.2540   10.8850   -2.5500 C   0  0  0  0  0  0  0  0  0  0  0  0
    1.2870    9.3740   -3.3830 O   0  0  0  0  0  0  0  0  0  0  0  0
    1.3930   10.6140   -6.0730 C   0  0  0  0  0  0  0  0  0  0  0  0
   -1.4170   10.6970   -2.2320 O   0  0  0  0  0  0  0  0  0  0  0  0
    0.6390   11.5960   -1.7940 O   0  0  0  0  0  0  0  0  0  0  0  0
    1.0800    9.5010   -6.4580 O   0  0  0  0  0  0  0  0  0  0  0  0
    2.1420   11.3840   -6.8400 O   0  0  0  0  0  0  0  0  0  0  0  0
    0.4530   13.0300   -1.7670 C   0  0  0  0  0  0  0  0  0  0  0  0
    1.5240   13.7360   -2.6270 C   0  0  0  0  0  0  0  0  0  0  0  0
    0.9860   14.3870   -3.9220 C   0  0  0  0  0  0  0  0  0  0  0  0
    0.9030   15.9210   -3.8840 C   0  0  0  0  0  0  0  0  0  0  0  0
    0.3630   16.5180   -5.1890 C   0  0  0  0  0  0  0  0  0  0  0  0
   -0.9560   17.0510   -5.0010 O   0  0  0  0  0  0  0  0  0  0  0  0
   -1.5320   18.2070   -5.9680 P   0  0  1  0  0  0  0  0  0  0  0  0
   -0.2400   18.9530   -6.5180 O   0  0  0  0  0  0  0  0  0  0  0  0
   -2.5330   17.7110   -6.9490 O   0  0  0  0  0  0  0  0  0  0  0  0
   -2.1510   19.2840   -4.9650 O   0  0  0  0  0  0  0  0  0  0  0  0
   -0.2610   19.8540   -7.8100 P   0  0  0  0  0  0  0  0  0  0  0  0
   -1.7500   20.3890   -8.0140 O   0  0  0  0  0  0  0  0  0  0  0  0
    0.7360   20.9580   -7.8300 O   0  0  0  0  0  0  0  0  0  0  0  0
   -0.1100   18.7660   -8.9450 O   0  0  0  0  0  0  0  0  0  0  0  0
  1  2  1  0
  2  3  1  0
  1  4  2  0
  1  5  1  0
  3  6  1  0
  3  7  1  0
  3  8  1  0
  6  9  1  0
  7 10  2  0
  7 11  1  0
  9 12  2  0
  9 13  1  0
 11 14  1  0
 14 15  1  0
 15 16  1  0
 16 17  1  0
 17 18  1  0
 18 19  1  0
 19 20  1  0
 20 21  1  0
 20 22  2  0
 20 23  1  1
 21 24  1  0
 24 25  1  0
 24 26  2  0
 24 27  1  0
M  END
>  <%Rank>  (1122) 
85.572519

>  <N_hits>  (1122) 
2

>  <submitter_name>  (1122) 
nan

>  <original SMILES>  (1122) 
nan

>  <∆G_unbound>  (1122) 
4.520183

>  <∆G_bound>  (1122) 
-4.813647

>  <regarded>  (1122) 
mArh-4jca_0_A_α,mArh-5cb5_P_0_P_β

>  <ref_pdb>  (1122) 
nan

>  <smiles>  (1122) 
O=C(O)CC(O)(CC(=O)O)C(=O)OCCCCCOP(=O)(O)OP(=O)(O)O

>  <submitter_email>  (1122) 
nan

>  <disregarded>  (1122) 


>  <LE>  (1122) 
-0.345697

>  <submitter_institution>  (1122) 
nan

>  <ref_mols>  (1122) 
mArh-4jca_0_A,mArh-5cb5_P_0_P

>  <N_constrained_atoms>  (1122) 
22.0

>  <ref_url>  (1122) 
nan

>  <method>  (1122) 
nan

>  <comRMSD>  (1122) 
1.807226

>  <N_unconstrained_atoms>  (1122) 
5.0

>  <∆∆G>  (1122) 
-9.33383

>  <runtime>  (1122) 
47.246219

>  <generation_date>  (1122) 
nan

$$$$
mArh-x0436_0_B_α-5CMS_0_R_α
     RDKit          3D

 25 26  0  0  0  0  0  0  0  0999 V2000
  -10.3530   28.3180  -15.7510 N   0  0  0  0  0  0  0  0  0  0  0  0
  -10.0620   29.6590  -15.7530 C   0  0  0  0  0  0  0  0  0  0  0  0
  -10.2180   30.3840  -14.4020 C   0  0  1  0  0  0  0  0  0  0  0  0
   -9.7090   30.1970  -16.7980 O   0  0  0  0  0  0  0  0  0  0  0  0
  -11.6360   30.9130  -14.2610 C   0  0  0  0  0  0  0  0  0  0  0  0
  -10.0150   29.4770  -13.3230 O   0  0  0  0  0  0  0  0  0  0  0  0
   -8.7230   29.2210  -12.9820 C   0  0  0  0  0  0  0  0  0  0  0  0
   -8.3040   29.1660  -11.6600 C   0  0  0  0  0  0  0  0  0  0  0  0
   -7.8210   29.0050  -14.0160 C   0  0  0  0  0  0  0  0  0  0  0  0
   -6.9760   28.8820  -11.3660 C   0  0  0  0  0  0  0  0  0  0  0  0
   -6.4990   28.7200  -13.7230 C   0  0  0  0  0  0  0  0  0  0  0  0
   -6.0780   28.6510  -12.4040 C   0  0  0  0  0  0  0  0  0  0  0  0
   -4.6670   28.3040  -12.1280 C   0  0  0  0  0  0  0  0  0  0  0  0
   -4.6090   26.7370  -12.1290 C   0  0  0  0  0  0  0  0  0  0  0  0
   -5.7270   26.0290  -11.3040 C   0  0  0  0  0  0  0  0  0  0  0  0
   -5.4560   24.6040  -10.7290 C   0  0  0  0  0  0  0  0  0  0  0  0
   -4.9350   24.5090   -9.3650 O   0  0  0  0  0  0  0  0  0  0  0  0
   -3.7740   23.7050   -9.4060 C   0  0  2  0  0  0  0  0  0  0  0  0
   -4.1500   22.2820   -9.7490 C   0  0  2  0  0  0  0  0  0  0  0  0
   -2.8140   23.3940   -8.2460 C   0  0  2  0  0  0  0  0  0  0  0  0
   -1.7580   24.3210   -8.3310 O   0  0  0  0  0  0  0  0  0  0  0  0
   -4.9830   21.8300   -8.7050 O   0  0  0  0  0  0  0  0  0  0  0  0
   -2.1850   22.0250   -8.6050 C   0  0  2  0  0  0  0  0  0  0  0  0
   -2.9900   21.4680   -9.6540 O   0  0  0  0  0  0  0  0  0  0  0  0
   -2.0420   21.0080   -7.5080 C   0  0  0  0  0  0  0  0  0  0  0  0
  1  2  1  0
  2  3  1  0
  2  4  2  0
  3  5  1  1
  3  6  1  0
  6  7  1  0
  7  8  2  0
  7  9  1  0
  8 10  1  0
  9 11  2  0
 10 12  2  0
 11 12  1  0
 12 13  1  0
 13 14  1  0
 14 15  1  0
 15 16  1  0
 16 17  1  0
 18 17  1  1
 18 19  1  0
 18 20  1  0
 20 21  1  6
 19 22  1  1
 20 23  1  0
 19 24  1  0
 23 24  1  0
 23 25  1  1
M  END
>  <%Rank>  (1123) 
85.648855

>  <N_hits>  (1123) 
2

>  <submitter_name>  (1123) 
nan

>  <original SMILES>  (1123) 
nan

>  <∆G_unbound>  (1123) 
0.043098

>  <∆G_bound>  (1123) 
-2.029165

>  <regarded>  (1123) 
mArh-x0436_0_B_α,5CMS_0_R_α

>  <ref_pdb>  (1123) 
nan

>  <smiles>  (1123) 
CC1OC(O)C(OCCCCc2ccc(O[C@H](C)C(N)=O)cc2)C1O

>  <submitter_email>  (1123) 
nan

>  <disregarded>  (1123) 


>  <LE>  (1123) 
-0.082891

>  <submitter_institution>  (1123) 
nan

>  <ref_mols>  (1123) 
mArh-x0436_0_B,5CMS_0_R

>  <N_constrained_atoms>  (1123) 
22.0

>  <ref_url>  (1123) 
nan

>  <method>  (1123) 
nan

>  <comRMSD>  (1123) 
1.722282

>  <N_unconstrained_atoms>  (1123) 
3.0

>  <∆∆G>  (1123) 
-2.072263

>  <runtime>  (1123) 
43.300232

>  <generation_date>  (1123) 
nan

$$$$
mArh-5lw0_B_1_B_α-mArh-x0689_0_A_α
     RDKit          3D

 24 25  0  0  0  0  0  0  0  0999 V2000
   -2.5330   21.8210   -8.3130 C   0  0  0  0  0  0  0  0  0  0  0  0
   -3.8890   21.6510   -8.9720 C   0  0  1  0  0  0  0  0  0  0  0  0
   -4.5500   20.5440   -8.3890 O   0  0  0  0  0  0  0  0  0  0  0  0
   -4.8810   22.7620   -8.8050 C   0  0  1  0  0  0  0  0  0  0  0  0
   -5.7460   22.7440   -9.9560 O   0  0  0  0  0  0  0  0  0  0  0  0
   -5.2570   20.8880   -7.2670 C   0  0  2  0  0  0  0  0  0  0  0  0
   -5.7070   22.3200   -7.6080 C   0  0  1  0  0  0  0  0  0  0  0  0
   -4.4190   20.6550   -6.1090 O   0  0  0  0  0  0  0  0  0  0  0  0
   -5.6000   23.2440   -6.5340 O   0  0  0  0  0  0  0  0  0  0  0  0
   -3.0300   20.3270   -6.4890 C   0  0  0  0  0  0  0  0  0  0  0  0
   -2.2300   19.2720   -5.6560 C   0  0  0  0  0  0  0  0  0  0  0  0
   -2.3390   17.7530   -6.0390 C   0  0  0  0  0  0  0  0  0  0  0  0
   -1.8890   16.6980   -4.9730 C   0  0  0  0  0  0  0  0  0  0  0  0
   -2.9690   15.6880   -4.3990 C   0  0  0  0  0  0  0  0  0  0  0  0
   -2.9450   15.1260   -2.9100 C   0  0  0  0  0  0  0  0  0  0  0  0
   -4.0330   15.5600   -1.8360 C   0  0  0  0  0  0  0  0  0  0  0  0
   -4.4010   14.6690   -0.5840 C   0  0  0  0  0  0  0  0  0  0  0  0
   -3.7290   15.0190    0.6750 N   0  0  0  0  0  0  0  0  0  0  0  0
   -2.3880   14.7700    0.5900 C   0  0  0  0  0  0  0  0  0  0  0  0
   -2.0110   14.7330   -0.6780 N   0  0  0  0  0  0  0  0  0  0  0  0
   -1.5670   14.5870    1.6390 N   0  0  0  0  0  0  0  0  0  0  0  0
   -0.7330   14.5130   -0.9430 C   0  0  0  0  0  0  0  0  0  0  0  0
   -0.2800   14.3680    1.3150 C   0  0  0  0  0  0  0  0  0  0  0  0
    0.1940   14.3240    0.0180 C   0  0  0  0  0  0  0  0  0  0  0  0
  2  1  1  1
  2  3  1  0
  2  4  1  0
  4  5  1  6
  3  6  1  0
  4  7  1  0
  6  7  1  0
  6  8  1  1
  7  9  1  1
  8 10  1  0
 10 11  1  0
 11 12  1  0
 12 13  1  0
 13 14  1  0
 14 15  1  0
 15 16  1  0
 16 17  1  0
 17 18  1  0
 18 19  1  0
 19 20  2  0
 19 21  1  0
 20 22  1  0
 21 23  2  0
 22 24  2  0
 23 24  1  0
M  END
>  <%Rank>  (1124) 
85.725191

>  <N_hits>  (1124) 
2

>  <submitter_name>  (1124) 
nan

>  <original SMILES>  (1124) 
nan

>  <∆G_unbound>  (1124) 
0.107199

>  <∆G_bound>  (1124) 
-7.81644

>  <regarded>  (1124) 
mArh-5lw0_B_1_B_α,mArh-x0689_0_A_α

>  <ref_pdb>  (1124) 
nan

>  <smiles>  (1124) 
CC1OC(OCCCCCCCCNc2ncccn2)C(O)C1O

>  <submitter_email>  (1124) 
nan

>  <disregarded>  (1124) 


>  <LE>  (1124) 
-0.330152

>  <submitter_institution>  (1124) 
nan

>  <ref_mols>  (1124) 
mArh-5lw0_B_1_B,mArh-x0689_0_A

>  <N_constrained_atoms>  (1124) 
17.0

>  <ref_url>  (1124) 
nan

>  <method>  (1124) 
nan

>  <comRMSD>  (1124) 
1.614529

>  <N_unconstrained_atoms>  (1124) 
7.0

>  <∆∆G>  (1124) 
-7.923638

>  <runtime>  (1124) 
44.805244

>  <generation_date>  (1124) 
nan

$$$$
5CMS_0_K_α-mArh-5mqx_0_A_β
     RDKit          3D

 23 23  0  0  0  0  0  0  0  0999 V2000
   -2.1780   21.0670   -8.1270 C   0  0  0  0  0  0  0  0  0  0  0  0
   -2.1590   22.0610   -9.2360 C   0  0  1  0  0  0  0  0  0  0  0  0
   -2.9860   21.6050  -10.3530 O   0  0  0  0  0  0  0  0  0  0  0  0
   -2.6710   23.4350   -8.8290 C   0  0  1  0  0  0  0  0  0  0  0  0
   -1.6080   24.3740   -8.9120 O   0  0  0  0  0  0  0  0  0  0  0  0
   -4.2070   22.2960  -10.1800 C   0  0  1  0  0  0  0  0  0  0  0  0
   -3.8380   23.7110   -9.7960 C   0  0  2  0  0  0  0  0  0  0  0  0
   -5.0570   22.3440  -11.3120 O   0  0  0  0  0  0  0  0  0  0  0  0
   -3.6500   24.6000  -10.9020 O   0  0  0  0  0  0  0  0  0  0  0  0
   -6.3490   22.6740  -10.8010 C   0  0  0  0  0  0  0  0  0  0  0  0
   -6.3360   22.6440   -9.2500 C   0  0  0  0  0  0  0  0  0  0  0  0
   -5.7040   21.3890   -8.6050 C   0  0  0  0  0  0  0  0  0  0  0  0
   -5.4500   21.3640   -7.1020 C   0  0  0  0  0  0  0  0  0  0  0  0
   -3.9790   21.1850   -6.6720 C   0  0  0  0  0  0  0  0  0  0  0  0
   -3.5290   19.8000   -6.6500 O   0  0  0  0  0  0  0  0  0  0  0  0
   -2.3980   19.4970   -5.5280 P   0  0  2  0  0  0  0  0  0  0  0  0
   -1.9820   17.8850   -5.4010 O   0  0  0  0  0  0  0  0  0  0  0  0
   -2.8830   20.1610   -4.2950 O   0  0  0  0  0  0  0  0  0  0  0  0
   -1.1790   20.2770   -6.0940 O   0  0  0  0  0  0  0  0  0  0  0  0
   -2.6930   16.4710   -4.9170 P   0  0  0  0  0  0  0  0  0  0  0  0
   -1.6350   15.3270   -5.1820 O   0  0  0  0  0  0  0  0  0  0  0  0
   -3.2580   16.3580   -3.5330 O   0  0  0  0  0  0  0  0  0  0  0  0
   -3.7780   16.1090   -6.0260 O   0  0  0  0  0  0  0  0  0  0  0  0
  2  1  1  1
  2  3  1  0
  2  4  1  0
  4  5  1  6
  3  6  1  0
  4  7  1  0
  6  7  1  0
  6  8  1  6
  7  9  1  6
  8 10  1  0
 10 11  1  0
 11 12  1  0
 12 13  1  0
 13 14  1  0
 14 15  1  0
 15 16  1  0
 16 17  1  0
 16 18  2  0
 16 19  1  6
 17 20  1  0
 20 21  1  0
 20 22  2  0
 20 23  1  0
M  END
>  <%Rank>  (1125) 
85.801527

>  <N_hits>  (1125) 
2

>  <submitter_name>  (1125) 
nan

>  <original SMILES>  (1125) 
nan

>  <∆G_unbound>  (1125) 
3.483257

>  <∆G_bound>  (1125) 
1.797432

>  <regarded>  (1125) 
5CMS_0_K_α,mArh-5mqx_0_A_β

>  <ref_pdb>  (1125) 
nan

>  <smiles>  (1125) 
CC1OC(OCCCCCOP(=O)(O)OP(=O)(O)O)C(O)C1O

>  <submitter_email>  (1125) 
nan

>  <disregarded>  (1125) 


>  <LE>  (1125) 
-0.073297

>  <submitter_institution>  (1125) 
nan

>  <ref_mols>  (1125) 
5CMS_0_K,mArh-5mqx_0_A

>  <N_constrained_atoms>  (1125) 
18.0

>  <ref_url>  (1125) 
nan

>  <method>  (1125) 
nan

>  <comRMSD>  (1125) 
1.578466

>  <N_unconstrained_atoms>  (1125) 
5.0

>  <∆∆G>  (1125) 
-1.685825

>  <runtime>  (1125) 
41.87864

>  <generation_date>  (1125) 
nan

$$$$
5L9K_0_B_δ-5DUS_0_A_α
     RDKit          3D

 24 26  0  0  0  0  0  0  0  0999 V2000
   -4.1870   15.7870    1.7740 N   0  0  0  0  0  0  0  0  0  0  0  0
   -3.1950   14.9980    1.0700 C   0  0  1  0  0  0  0  0  0  0  0  0
   -3.2610   14.9210   -0.4820 C   0  0  2  0  0  0  0  0  0  0  0  0
   -1.9150   15.4980    1.5220 N   0  0  0  0  0  0  0  0  0  0  0  0
   -1.8380   14.8900   -0.9370 C   0  0  2  0  0  0  0  0  0  0  0  0
   -3.6510   15.9420   -1.4880 N   0  0  0  0  0  0  0  0  0  0  0  0
   -0.7820   14.6590    1.1720 C   0  0  0  0  0  0  0  0  0  0  0  0
   -2.1060   14.3560   -2.2410 N   0  0  0  0  0  0  0  0  0  0  0  0
   -3.0330   15.3640   -2.7560 C   0  0  2  0  0  0  0  0  0  0  0  0
   -0.9660   14.0760   -0.1440 N   0  0  0  0  0  0  0  0  0  0  0  0
   -2.2280   16.3190   -3.7320 C   0  0  0  0  0  0  0  0  0  0  0  0
   -2.7010   16.4690   -5.2130 C   0  0  0  0  0  0  0  0  0  0  0  0
   -2.2960   17.7030   -6.1170 C   0  0  0  0  0  0  0  0  0  0  0  0
   -2.0330   19.1280   -5.5260 C   0  0  0  0  0  0  0  0  0  0  0  0
   -2.7580   20.3140   -6.2460 C   0  0  0  0  0  0  0  0  0  0  0  0
   -4.0120   20.8260   -5.6840 O   0  0  0  0  0  0  0  0  0  0  0  0
   -4.6960   21.6830   -6.6410 C   0  0  2  0  0  0  0  0  0  0  0  0
   -4.2790   21.2860   -7.9460 O   0  0  0  0  0  0  0  0  0  0  0  0
   -4.3170   23.1860   -6.5060 C   0  0  2  0  0  0  0  0  0  0  0  0
   -5.4480   24.0620   -6.2990 O   0  0  0  0  0  0  0  0  0  0  0  0
   -3.2900   22.1980   -8.4040 C   0  0  1  0  0  0  0  0  0  0  0  0
   -3.7440   23.5360   -7.8830 C   0  0  1  0  0  0  0  0  0  0  0  0
   -1.8930   21.8170   -7.9410 C   0  0  0  0  0  0  0  0  0  0  0  0
   -4.7140   24.1050   -8.7620 O   0  0  0  0  0  0  0  0  0  0  0  0
  2  1  1  6
  2  3  1  0
  2  4  1  0
  3  5  1  0
  3  6  1  6
  4  7  1  0
  5  8  1  6
  6  9  1  0
  8  9  1  0
  5 10  1  0
  7 10  1  0
  9 11  1  1
 11 12  1  0
 12 13  1  0
 13 14  1  0
 14 15  1  0
 15 16  1  0
 17 16  1  1
 17 18  1  0
 17 19  1  0
 19 20  1  6
 18 21  1  0
 19 22  1  0
 21 22  1  0
 21 23  1  1
 22 24  1  6
M  END
>  <%Rank>  (1126) 
85.877863

>  <N_hits>  (1126) 
2

>  <submitter_name>  (1126) 
nan

>  <original SMILES>  (1126) 
nan

>  <∆G_unbound>  (1126) 
0.335171

>  <∆G_bound>  (1126) 
-9.682762

>  <regarded>  (1126) 
5L9K_0_B_δ,5DUS_0_A_α

>  <ref_pdb>  (1126) 
nan

>  <smiles>  (1126) 
CC1OC(OCCCCCC2NC3NCNC(N)C3N2)C(O)C1O

>  <submitter_email>  (1126) 
nan

>  <disregarded>  (1126) 


>  <LE>  (1126) 
-0.417414

>  <submitter_institution>  (1126) 
nan

>  <ref_mols>  (1126) 
5L9K_0_B,5DUS_0_A

>  <N_constrained_atoms>  (1126) 
19.0

>  <ref_url>  (1126) 
nan

>  <method>  (1126) 
nan

>  <comRMSD>  (1126) 
1.782906

>  <N_unconstrained_atoms>  (1126) 
5.0

>  <∆∆G>  (1126) 
-10.017934

>  <runtime>  (1126) 
41.85494

>  <generation_date>  (1126) 
nan

$$$$
mArh-4jca_0_A_α-5DUS_0_A_δ
     RDKit          3D

 25 26  0  0  0  0  0  0  0  0999 V2000
   -0.7200    7.9720   -5.2280 C   0  0  0  0  0  0  0  0  0  0  0  0
    0.0090    9.2380   -5.3540 C   0  0  0  0  0  0  0  0  0  0  0  0
    0.3580   10.0730   -4.0950 C   0  0  0  0  0  0  0  0  0  0  0  0
   -0.3080    6.8630   -5.5350 O   0  0  0  0  0  0  0  0  0  0  0  0
   -1.9350    8.2010   -4.7090 O   0  0  0  0  0  0  0  0  0  0  0  0
    1.0410   11.2720   -4.7300 C   0  0  0  0  0  0  0  0  0  0  0  0
   -0.7420   10.4080   -3.1000 C   0  0  0  0  0  0  0  0  0  0  0  0
    1.2750    9.4440   -3.2900 O   0  0  0  0  0  0  0  0  0  0  0  0
    1.8190   10.9080   -5.9680 C   0  0  0  0  0  0  0  0  0  0  0  0
   -1.9300   10.2330   -3.2630 O   0  0  0  0  0  0  0  0  0  0  0  0
   -0.1720   10.9200   -1.9640 O   0  0  0  0  0  0  0  0  0  0  0  0
    3.0050   10.8940   -6.0810 O   0  0  0  0  0  0  0  0  0  0  0  0
    1.0460   10.5700   -7.0180 O   0  0  0  0  0  0  0  0  0  0  0  0
   -0.6480   12.2750   -1.8190 C   0  0  0  0  0  0  0  0  0  0  0  0
    0.2900   13.2930   -1.1350 C   0  0  0  0  0  0  0  0  0  0  0  0
   -0.3620   14.4760   -0.5600 N   0  0  0  0  0  0  0  0  0  0  0  0
   -1.7370   14.6180   -0.9740 C   0  0  1  0  0  0  0  0  0  0  0  0
   -0.2170   14.5510    0.9050 C   0  0  0  0  0  0  0  0  0  0  0  0
   -2.1500   14.0570   -2.2140 N   0  0  0  0  0  0  0  0  0  0  0  0
   -2.8670   14.1610   -0.0920 C   0  0  2  0  0  0  0  0  0  0  0  0
   -1.3480   15.2260    1.5200 N   0  0  0  0  0  0  0  0  0  0  0  0
   -3.9380   14.8420   -0.8430 N   0  0  0  0  0  0  0  0  0  0  0  0
   -3.4660   14.7000   -2.2450 C   0  0  0  0  0  0  0  0  0  0  0  0
   -2.5920   14.5390    1.3670 C   0  0  1  0  0  0  0  0  0  0  0  0
   -3.6020   15.4240    1.9290 N   0  0  0  0  0  0  0  0  0  0  0  0
  1  2  1  0
  2  3  1  0
  1  4  2  0
  1  5  1  0
  3  6  1  0
  3  7  1  0
  3  8  1  0
  6  9  1  0
  7 10  2  0
  7 11  1  0
  9 12  2  0
  9 13  1  0
 11 14  1  0
 14 15  1  0
 15 16  1  0
 16 17  1  0
 16 18  1  0
 17 19  1  6
 17 20  1  0
 18 21  1  0
 20 22  1  6
 19 23  1  0
 22 23  1  0
 20 24  1  0
 21 24  1  0
 24 25  1  6
M  END
>  <%Rank>  (1127) 
85.954198

>  <N_hits>  (1127) 
2

>  <submitter_name>  (1127) 
nan

>  <original SMILES>  (1127) 
nan

>  <∆G_unbound>  (1127) 
8.435645

>  <∆G_bound>  (1127) 
7.549197

>  <regarded>  (1127) 
mArh-4jca_0_A_α,5DUS_0_A_δ

>  <ref_pdb>  (1127) 
nan

>  <smiles>  (1127) 
NC1NCN(CCOC(=O)C(O)(CC(=O)O)CC(=O)O)C2NCNC12

>  <submitter_email>  (1127) 
nan

>  <disregarded>  (1127) 


>  <LE>  (1127) 
-0.035458

>  <submitter_institution>  (1127) 
nan

>  <ref_mols>  (1127) 
mArh-4jca_0_A,5DUS_0_A

>  <N_constrained_atoms>  (1127) 
23.0

>  <ref_url>  (1127) 
nan

>  <method>  (1127) 
nan

>  <comRMSD>  (1127) 
1.759544

>  <N_unconstrained_atoms>  (1127) 
2.0

>  <∆∆G>  (1127) 
-0.886448

>  <runtime>  (1127) 
32.483763

>  <generation_date>  (1127) 
nan

$$$$
mArh-6mea_B_0_B_α-5MQX_0_A_δ
     RDKit          3D

 25 27  0  0  0  0  0  0  0  0999 V2000
   -1.8220   21.8210   -8.0010 C   0  0  0  0  0  0  0  0  0  0  0  0
   -3.1960   22.2320   -8.5160 C   0  0  1  0  0  0  0  0  0  0  0  0
   -4.1910   21.3070   -8.1020 O   0  0  0  0  0  0  0  0  0  0  0  0
   -3.6600   23.5680   -7.9810 C   0  0  1  0  0  0  0  0  0  0  0  0
   -4.6570   24.0910   -8.8730 O   0  0  0  0  0  0  0  0  0  0  0  0
   -4.6060   21.6800   -6.7970 C   0  0  2  0  0  0  0  0  0  0  0  0
   -4.2870   23.1970   -6.6400 C   0  0  2  0  0  0  0  0  0  0  0  0
   -3.9020   20.8460   -5.8360 O   0  0  0  0  0  0  0  0  0  0  0  0
   -5.4660   24.0130   -6.4530 O   0  0  0  0  0  0  0  0  0  0  0  0
   -2.9580   19.8820   -6.4360 C   0  0  0  0  0  0  0  0  0  0  0  0
   -1.8920   19.2850   -5.4950 C   0  0  0  0  0  0  0  0  0  0  0  0
   -1.4780   17.8040   -5.7600 C   0  0  0  0  0  0  0  0  0  0  0  0
   -2.3570   16.6380   -5.1940 C   0  0  0  0  0  0  0  0  0  0  0  0
   -2.0550   16.0930   -3.7710 C   0  0  0  0  0  0  0  0  0  0  0  0
   -3.2310   15.6200   -2.8530 C   0  0  0  0  0  0  0  0  0  0  0  0
   -3.1510   14.2280   -2.1700 C   0  0  1  0  0  0  0  0  0  0  0  0
   -1.7840   13.8120   -1.8170 N   0  0  0  0  0  0  0  0  0  0  0  0
   -3.9190   14.2290   -0.8970 N   0  0  0  0  0  0  0  0  0  0  0  0
   -1.7860   13.7660   -0.3830 C   0  0  2  0  0  0  0  0  0  0  0  0
   -2.8840   14.7340   -0.0190 C   0  0  2  0  0  0  0  0  0  0  0  0
   -0.4720   14.0310    0.1440 N   0  0  0  0  0  0  0  0  0  0  0  0
   -2.9000   14.6350    1.4820 C   0  0  2  0  0  0  0  0  0  0  0  0
   -3.9050   15.4550    2.1180 N   0  0  0  0  0  0  0  0  0  0  0  0
   -0.5060   14.2790    1.5690 C   0  0  0  0  0  0  0  0  0  0  0  0
   -1.6230   15.1530    1.8570 N   0  0  0  0  0  0  0  0  0  0  0  0
  2  1  1  1
  2  3  1  0
  2  4  1  0
  4  5  1  6
  3  6  1  0
  4  7  1  0
  6  7  1  0
  6  8  1  1
  7  9  1  6
  8 10  1  0
 10 11  1  0
 11 12  1  0
 12 13  1  0
 13 14  1  0
 14 15  1  0
 16 15  1  1
 16 17  1  0
 16 18  1  0
 19 17  1  6
 20 18  1  6
 19 20  1  0
 19 21  1  0
 20 22  1  0
 22 23  1  1
 21 24  1  0
 22 25  1  0
 24 25  1  0
M  END
>  <%Rank>  (1128) 
86.030534

>  <N_hits>  (1128) 
2

>  <submitter_name>  (1128) 
nan

>  <original SMILES>  (1128) 
nan

>  <∆G_unbound>  (1128) 
0.45278

>  <∆G_bound>  (1128) 
-9.239438

>  <regarded>  (1128) 
mArh-6mea_B_0_B_α,5MQX_0_A_δ

>  <ref_pdb>  (1128) 
nan

>  <smiles>  (1128) 
CC1OC(OCCCCCCC2NC3NCNC(N)C3N2)C(O)C1O

>  <submitter_email>  (1128) 
nan

>  <disregarded>  (1128) 


>  <LE>  (1128) 
-0.387689

>  <submitter_institution>  (1128) 
nan

>  <ref_mols>  (1128) 
mArh-6mea_B_0_B,5MQX_0_A

>  <N_constrained_atoms>  (1128) 
19.0

>  <ref_url>  (1128) 
nan

>  <method>  (1128) 
nan

>  <comRMSD>  (1128) 
1.754543

>  <N_unconstrained_atoms>  (1128) 
6.0

>  <∆∆G>  (1128) 
-9.692219

>  <runtime>  (1128) 
48.752134

>  <generation_date>  (1128) 
nan

$$$$
mArh-5cms_B_1_B_α-mArh-4iqy_B_0_B_γ
     RDKit          3D

 23 24  0  0  0  0  0  0  0  0999 V2000
   -3.4340   23.0820   -7.7610 C   0  0  0  0  0  0  0  0  0  0  0  0
   -4.2560   22.8840   -9.0310 C   0  0  1  0  0  0  0  0  0  0  0  0
   -4.7140   24.1670   -9.5190 O   0  0  0  0  0  0  0  0  0  0  0  0
   -3.3540   22.4940  -10.1150 C   0  0  1  0  0  0  0  0  0  0  0  0
   -2.8370   21.2070  -10.0530 O   0  0  0  0  0  0  0  0  0  0  0  0
   -4.4720   24.2420  -10.9460 C   0  0  2  0  0  0  0  0  0  0  0  0
   -4.1690   22.8230  -11.3550 C   0  0  2  0  0  0  0  0  0  0  0  0
   -3.4050   25.1000  -11.2730 O   0  0  0  0  0  0  0  0  0  0  0  0
   -5.3970   22.1720  -11.4830 O   0  0  0  0  0  0  0  0  0  0  0  0
   -1.7790   21.1800   -9.0740 C   0  0  0  0  0  0  0  0  0  0  0  0
   -2.2750   20.8320   -7.6770 C   0  0  0  0  0  0  0  0  0  0  0  0
   -1.6140   19.5840   -7.1060 C   0  0  0  0  0  0  0  0  0  0  0  0
   -0.2040   19.3790   -7.6550 C   0  0  0  0  0  0  0  0  0  0  0  0
    0.7150   18.6990   -6.6460 C   0  0  0  0  0  0  0  0  0  0  0  0
    0.0120   18.0110   -5.4920 C   0  0  0  0  0  0  0  0  0  0  0  0
    0.7210   16.7850   -4.9330 C   0  0  0  0  0  0  0  0  0  0  0  0
   -0.1700   15.6970   -4.3660 C   0  0  2  0  0  0  0  0  0  0  0  0
   -0.1290   15.6560   -2.9370 O   0  0  0  0  0  0  0  0  0  0  0  0
    0.0490   14.2550   -4.7750 C   0  0  1  0  0  0  0  0  0  0  0  0
    1.3490   13.7450   -4.5000 O   0  0  0  0  0  0  0  0  0  0  0  0
   -0.7690   14.4280   -2.5670 C   0  0  0  0  0  0  0  0  0  0  0  0
   -1.0060   13.6520   -3.8640 C   0  0  2  0  0  0  0  0  0  0  0  0
   -0.8710   12.2460   -3.7340 O   0  0  0  0  0  0  0  0  0  0  0  0
  2  1  1  1
  2  3  1  0
  2  4  1  0
  4  5  1  1
  3  6  1  0
  4  7  1  0
  6  7  1  0
  6  8  1  1
  7  9  1  1
  5 10  1  0
 10 11  1  0
 11 12  1  0
 12 13  1  0
 13 14  1  0
 14 15  1  0
 15 16  1  0
 17 16  1  6
 17 18  1  0
 17 19  1  0
 19 20  1  1
 18 21  1  0
 19 22  1  0
 21 22  1  0
 22 23  1  1
M  END
>  <%Rank>  (1129) 
86.10687

>  <N_hits>  (1129) 
2

>  <submitter_name>  (1129) 
nan

>  <original SMILES>  (1129) 
nan

>  <∆G_unbound>  (1129) 
0.438128

>  <∆G_bound>  (1129) 
-8.052768

>  <regarded>  (1129) 
mArh-5cms_B_1_B_α,mArh-4iqy_B_0_B_γ

>  <ref_pdb>  (1129) 
nan

>  <smiles>  (1129) 
CC1OC(O)C(O)C1OCCCCCCCC1OCC(O)C1O

>  <submitter_email>  (1129) 
nan

>  <disregarded>  (1129) 


>  <LE>  (1129) 
-0.369169

>  <submitter_institution>  (1129) 
nan

>  <ref_mols>  (1129) 
mArh-5cms_B_1_B,mArh-4iqy_B_0_B

>  <N_constrained_atoms>  (1129) 
17.0

>  <ref_url>  (1129) 
nan

>  <method>  (1129) 
nan

>  <comRMSD>  (1129) 
1.689

>  <N_unconstrained_atoms>  (1129) 
6.0

>  <∆∆G>  (1129) 
-8.490895

>  <runtime>  (1129) 
45.060629

>  <generation_date>  (1129) 
nan

$$$$
mArh-3vfq_B_0_A_β-mArh-5cb5_C_0_C_α
     RDKit          3D

 20 20  0  0  0  0  0  0  0  0999 V2000
   -1.8330   19.4090   -7.6030 O   0  0  0  0  0  0  0  0  0  0  0  0
   -1.4280   18.2060   -6.6520 P   0  0  0  0  0  0  0  0  0  0  0  0
   -2.0650   18.3910   -5.2730 N   0  0  0  0  0  0  0  0  0  0  0  0
   -0.0020   17.8760   -6.8490 O   0  0  0  0  0  0  0  0  0  0  0  0
   -2.4960   17.2130   -7.2160 O   0  0  0  0  0  0  0  0  0  0  0  0
   -2.7820   16.8260   -5.3120 P   0  0  0  0  0  0  0  0  0  0  0  0
   -2.6130   19.8060   -5.3850 C   0  0  0  0  0  0  0  0  0  0  0  0
   -3.1780   16.3410   -3.8530 O   0  0  0  0  0  0  0  0  0  0  0  0
   -3.9730   16.5420   -6.1650 O   0  0  0  0  0  0  0  0  0  0  0  0
   -1.7550   15.6980   -5.5570 O   0  0  0  0  0  0  0  0  0  0  0  0
   -3.6040   20.0990   -6.5520 C   0  0  0  0  0  0  0  0  0  0  0  0
   -4.8060   20.8300   -6.2020 O   0  0  0  0  0  0  0  0  0  0  0  0
   -5.1130   21.7220   -7.2660 C   0  0  2  0  0  0  0  0  0  0  0  0
   -4.4820   21.2460   -8.4570 O   0  0  0  0  0  0  0  0  0  0  0  0
   -4.5090   23.1050   -6.9410 C   0  0  2  0  0  0  0  0  0  0  0  0
   -5.5060   24.0770   -6.5840 O   0  0  0  0  0  0  0  0  0  0  0  0
   -3.4290   22.1490   -8.8040 C   0  0  1  0  0  0  0  0  0  0  0  0
   -3.8550   23.4990   -8.2670 C   0  0  1  0  0  0  0  0  0  0  0  0
   -2.0680   21.6830   -8.2990 C   0  0  0  0  0  0  0  0  0  0  0  0
   -4.7730   24.1240   -9.1630 O   0  0  0  0  0  0  0  0  0  0  0  0
  1  2  1  0
  2  3  1  0
  2  4  2  0
  2  5  1  0
  3  6  1  0
  3  7  1  0
  6  8  1  0
  6  9  2  0
  6 10  1  0
  7 11  1  0
 11 12  1  0
 13 12  1  1
 13 14  1  0
 13 15  1  0
 15 16  1  6
 14 17  1  0
 15 18  1  0
 17 18  1  0
 17 19  1  1
 18 20  1  6
M  END
>  <%Rank>  (1130) 
86.183206

>  <N_hits>  (1130) 
2

>  <submitter_name>  (1130) 
nan

>  <original SMILES>  (1130) 
nan

>  <∆G_unbound>  (1130) 
1.125738

>  <∆G_bound>  (1130) 
-0.388833

>  <regarded>  (1130) 
mArh-3vfq_B_0_A_β,mArh-5cb5_C_0_C_α

>  <ref_pdb>  (1130) 
nan

>  <smiles>  (1130) 
CC1OC(OCCN(P(=O)(O)O)P(=O)(O)O)C(O)C1O

>  <submitter_email>  (1130) 
nan

>  <disregarded>  (1130) 


>  <LE>  (1130) 
-0.075729

>  <submitter_institution>  (1130) 
nan

>  <ref_mols>  (1130) 
mArh-3vfq_B_0_A,mArh-5cb5_C_0_C

>  <N_constrained_atoms>  (1130) 
18.0

>  <ref_url>  (1130) 
nan

>  <method>  (1130) 
nan

>  <comRMSD>  (1130) 
1.693582

>  <N_unconstrained_atoms>  (1130) 
2.0

>  <∆∆G>  (1130) 
-1.51457

>  <runtime>  (1130) 
44.499713

>  <generation_date>  (1130) 
nan

$$$$
3VFQ_0_A_β-5CB5_0_C_δ
     RDKit          3D

 20 21  0  0  0  0  0  0  0  0999 V2000
   -2.2920   19.1500   -5.0740 O   0  0  0  0  0  0  0  0  0  0  0  0
   -1.8730   17.9760   -6.1750 P   0  0  0  0  0  0  0  0  0  0  0  0
   -2.2900   16.8460   -5.2370 O   0  0  0  0  0  0  0  0  0  0  0  0
   -0.3280   17.4640   -6.2110 O   0  0  0  0  0  0  0  0  0  0  0  0
   -2.9680   17.5240   -7.2390 O   0  0  0  0  0  0  0  0  0  0  0  0
   -3.5040   15.9180   -5.5400 P   0  0  0  0  0  0  0  0  0  0  0  0
   -2.7960   14.5300   -5.0580 O   0  0  0  0  0  0  0  0  0  0  0  0
   -3.6270   16.4680   -7.0680 O   0  0  0  0  0  0  0  0  0  0  0  0
   -4.8290   15.1670   -5.7530 O   0  0  0  0  0  0  0  0  0  0  0  0
   -3.3750   14.1590   -3.8630 C   0  0  0  0  0  0  0  0  0  0  0  0
   -2.7240   14.9570   -2.7530 C   0  0  2  0  0  0  0  0  0  0  0  0
   -1.5540   14.2850   -2.2790 N   0  0  0  0  0  0  0  0  0  0  0  0
   -3.5910   15.1000   -1.5770 N   0  0  0  0  0  0  0  0  0  0  0  0
   -1.5450   14.4530   -0.8640 C   0  0  2  0  0  0  0  0  0  0  0  0
   -2.5890   15.5690   -0.6620 C   0  0  2  0  0  0  0  0  0  0  0  0
   -0.3030   14.9330   -0.3980 N   0  0  0  0  0  0  0  0  0  0  0  0
   -2.9460   15.5520    0.8120 C   0  0  1  0  0  0  0  0  0  0  0  0
   -4.1070   14.7020    1.0080 N   0  0  0  0  0  0  0  0  0  0  0  0
   -0.5530   15.3670    0.9510 C   0  0  0  0  0  0  0  0  0  0  0  0
   -1.8210   14.8850    1.4530 N   0  0  0  0  0  0  0  0  0  0  0  0
  1  2  1  0
  2  3  1  0
  2  4  1  0
  2  5  1  0
  3  6  1  0
  6  7  1  0
  6  8  1  0
  6  9  1  0
  7 10  1  0
 11 10  1  6
 11 12  1  0
 11 13  1  0
 14 12  1  6
 15 13  1  6
 14 15  1  0
 14 16  1  0
 15 17  1  0
 17 18  1  6
 16 19  1  0
 17 20  1  0
 19 20  1  0
M  CHG  2   4  -1   8  -1
M  END
>  <%Rank>  (1131) 
86.259542

>  <N_hits>  (1131) 
2

>  <submitter_name>  (1131) 
nan

>  <original SMILES>  (1131) 
nan

>  <∆G_unbound>  (1131) 
1.691511

>  <∆G_bound>  (1131) 
-0.671017

>  <regarded>  (1131) 
3VFQ_0_A_β,5CB5_0_C_δ

>  <ref_pdb>  (1131) 
nan

>  <smiles>  (1131) 
NC1NCNC2NC(CO[PH]([O-])(O)O[PH]([O-])(O)O)NC12

>  <submitter_email>  (1131) 
nan

>  <disregarded>  (1131) 


>  <LE>  (1131) 
-0.118126

>  <submitter_institution>  (1131) 
nan

>  <ref_mols>  (1131) 
3VFQ_0_A,5CB5_0_C

>  <N_constrained_atoms>  (1131) 
19.0

>  <ref_url>  (1131) 
nan

>  <method>  (1131) 
nan

>  <comRMSD>  (1131) 
1.771762

>  <N_unconstrained_atoms>  (1131) 
1.0

>  <∆∆G>  (1131) 
-2.362527

>  <runtime>  (1131) 
34.994186

>  <generation_date>  (1131) 
nan

$$$$
5CMS_0_P_δ-mArh-6mea_A_0_A_α
     RDKit          3D

 24 26  0  0  0  0  0  0  0  0999 V2000
   -3.7420   15.4180    1.4670 N   0  0  0  0  0  0  0  0  0  0  0  0
   -2.8270   14.4820    0.8490 C   0  0  1  0  0  0  0  0  0  0  0  0
   -2.2250   14.8380   -0.5120 C   0  0  1  0  0  0  0  0  0  0  0  0
   -1.7320   14.3830    1.7800 N   0  0  0  0  0  0  0  0  0  0  0  0
   -1.5260   13.6080   -0.9100 C   0  0  1  0  0  0  0  0  0  0  0  0
   -2.9820   15.2640   -1.7320 N   0  0  0  0  0  0  0  0  0  0  0  0
   -0.4090   14.3030    1.1640 C   0  0  0  0  0  0  0  0  0  0  0  0
   -1.1760   13.8480   -2.2860 N   0  0  0  0  0  0  0  0  0  0  0  0
   -2.2660   14.6170   -2.8810 C   0  0  2  0  0  0  0  0  0  0  0  0
   -0.3550   13.4880   -0.0700 N   0  0  0  0  0  0  0  0  0  0  0  0
   -1.6720   15.5270   -4.0360 C   0  0  0  0  0  0  0  0  0  0  0  0
   -2.5750   16.5200   -4.8150 C   0  0  0  0  0  0  0  0  0  0  0  0
   -1.8870   17.5340   -5.8020 C   0  0  0  0  0  0  0  0  0  0  0  0
   -2.0220   19.0890   -5.5600 C   0  0  0  0  0  0  0  0  0  0  0  0
   -3.0530   19.8350   -6.4620 C   0  0  0  0  0  0  0  0  0  0  0  0
   -3.9030   20.8160   -5.7710 O   0  0  0  0  0  0  0  0  0  0  0  0
   -4.6870   21.5960   -6.7030 C   0  0  2  0  0  0  0  0  0  0  0  0
   -4.3390   21.1470   -8.0100 O   0  0  0  0  0  0  0  0  0  0  0  0
   -4.3480   23.1170   -6.6370 C   0  0  2  0  0  0  0  0  0  0  0  0
   -5.4970   23.9850   -6.4630 O   0  0  0  0  0  0  0  0  0  0  0  0
   -3.3490   22.0530   -8.5090 C   0  0  1  0  0  0  0  0  0  0  0  0
   -3.7780   23.4200   -8.0310 C   0  0  1  0  0  0  0  0  0  0  0  0
   -1.9420   21.7050   -8.0380 C   0  0  0  0  0  0  0  0  0  0  0  0
   -4.7340   23.9970   -8.9240 O   0  0  0  0  0  0  0  0  0  0  0  0
  2  1  1  1
  2  3  1  0
  2  4  1  0
  3  5  1  0
  3  6  1  6
  4  7  1  0
  5  8  1  6
  6  9  1  0
  8  9  1  0
  5 10  1  0
  7 10  1  0
  9 11  1  6
 11 12  1  0
 12 13  1  0
 13 14  1  0
 14 15  1  0
 15 16  1  0
 17 16  1  1
 17 18  1  0
 17 19  1  0
 19 20  1  6
 18 21  1  0
 19 22  1  0
 21 22  1  0
 21 23  1  1
 22 24  1  6
M  END
>  <%Rank>  (1132) 
86.335878

>  <N_hits>  (1132) 
2

>  <submitter_name>  (1132) 
nan

>  <original SMILES>  (1132) 
nan

>  <∆G_unbound>  (1132) 
0.335171

>  <∆G_bound>  (1132) 
-8.358645

>  <regarded>  (1132) 
5CMS_0_P_δ,mArh-6mea_A_0_A_α

>  <ref_pdb>  (1132) 
nan

>  <smiles>  (1132) 
CC1OC(OCCCCCC2NC3NCNC(N)C3N2)C(O)C1O

>  <submitter_email>  (1132) 
nan

>  <disregarded>  (1132) 


>  <LE>  (1132) 
-0.362242

>  <submitter_institution>  (1132) 
nan

>  <ref_mols>  (1132) 
5CMS_0_P,mArh-6mea_A_0_A

>  <N_constrained_atoms>  (1132) 
19.0

>  <ref_url>  (1132) 
nan

>  <method>  (1132) 
nan

>  <comRMSD>  (1132) 
1.796955

>  <N_unconstrained_atoms>  (1132) 
5.0

>  <∆∆G>  (1132) 
-8.693816

>  <runtime>  (1132) 
44.722833

>  <generation_date>  (1132) 
nan

$$$$
mArh-2fav_B_0_B_β-mArh-5cms_M_12_M_α
     RDKit          3D

 17 17  0  0  0  0  0  0  0  0999 V2000
   -2.2990   20.8510   -7.9070 O   0  0  0  0  0  0  0  0  0  0  0  0
   -0.7220   20.1910   -7.8150 P   0  0  0  0  0  0  0  0  0  0  0  0
   -0.3880   19.4370   -6.4000 O   0  0  0  0  0  0  0  0  0  0  0  0
   -2.3380   21.7680   -8.9310 C   0  0  1  0  0  0  0  0  0  0  0  0
   -0.2080   21.5180   -7.2770 O   0  0  0  0  0  0  0  0  0  0  0  0
   -1.0800   18.8630   -8.4590 O   0  0  0  0  0  0  0  0  0  0  0  0
   -3.1610   21.4060   -9.9860 O   0  0  0  0  0  0  0  0  0  0  0  0
   -2.8440   23.2230   -8.5990 C   0  0  2  0  0  0  0  0  0  0  0  0
   -0.9400   18.0780   -5.8790 P   0  0  0  0  0  0  0  0  0  0  0  0
   -3.1660   23.1650   -7.3170 O   0  0  0  0  0  0  0  0  0  0  0  0
   -4.2990   22.1690  -10.1270 C   0  0  1  0  0  0  0  0  0  0  0  0
   -4.1070   23.4770   -9.4890 C   0  0  2  0  0  0  0  0  0  0  0  0
   -1.2500   16.6950   -5.2970 O   0  0  0  0  0  0  0  0  0  0  0  0
   -1.2750   18.7700   -4.4320 O   0  0  0  0  0  0  0  0  0  0  0  0
   -2.2210   18.0050   -6.9150 O   0  0  0  0  0  0  0  0  0  0  0  0
   -4.7710   22.3350  -11.4230 O   0  0  0  0  0  0  0  0  0  0  0  0
   -3.9320   24.4580  -10.4960 O   0  0  0  0  0  0  0  0  0  0  0  0
  1  2  1  0
  2  3  1  0
  4  1  1  1
  2  5  1  0
  2  6  1  0
  4  7  1  0
  4  8  1  0
  3  9  1  0
  8 10  1  1
  7 11  1  0
  8 12  1  0
 11 12  1  0
  9 13  1  0
  9 14  1  0
  9 15  1  0
 11 16  1  6
 12 17  1  6
M  CHG  2   5  -1  14  -1
M  END
>  <%Rank>  (1133) 
86.412214

>  <N_hits>  (1133) 
2

>  <submitter_name>  (1133) 
nan

>  <original SMILES>  (1133) 
nan

>  <∆G_unbound>  (1133) 
0.972863

>  <∆G_bound>  (1133) 
-2.297225

>  <regarded>  (1133) 
mArh-2fav_B_0_B_β,mArh-5cms_M_12_M_α

>  <ref_pdb>  (1133) 
nan

>  <smiles>  (1133) 
[O-][PH](O)(O)O[PH]([O-])(O)OC1OC(O)C(O)C1O

>  <submitter_email>  (1133) 
nan

>  <disregarded>  (1133) 


>  <LE>  (1133) 
-0.192358

>  <submitter_institution>  (1133) 
nan

>  <ref_mols>  (1133) 
mArh-2fav_B_0_B,mArh-5cms_M_12_M

>  <N_constrained_atoms>  (1133) 
17.0

>  <ref_url>  (1133) 
nan

>  <method>  (1133) 
nan

>  <comRMSD>  (1133) 
1.806197

>  <N_unconstrained_atoms>  (1133) 
0.0

>  <∆∆G>  (1133) 
-3.270088

>  <runtime>  (1133) 
39.484309

>  <generation_date>  (1133) 
nan

$$$$
5L9K_0_A_δ-mArh-5cb5_G_0_G_α
     RDKit          3D

 24 26  0  0  0  0  0  0  0  0999 V2000
   -4.4870   15.5110    1.6510 N   0  0  0  0  0  0  0  0  0  0  0  0
   -3.4550   14.7770    0.9430 C   0  0  1  0  0  0  0  0  0  0  0  0
   -3.2590   15.1410   -0.5600 C   0  0  1  0  0  0  0  0  0  0  0  0
   -2.2630   15.1300    1.7130 N   0  0  0  0  0  0  0  0  0  0  0  0
   -1.9160   14.5120   -0.9120 C   0  0  1  0  0  0  0  0  0  0  0  0
   -4.0440   14.6970   -1.7330 N   0  0  0  0  0  0  0  0  0  0  0  0
   -1.0340   14.5290    1.2340 C   0  0  0  0  0  0  0  0  0  0  0  0
   -1.7290   14.8470   -2.2860 N   0  0  0  0  0  0  0  0  0  0  0  0
   -3.0370   14.6760   -2.8730 C   0  0  2  0  0  0  0  0  0  0  0  0
   -0.8090   14.9620   -0.1190 N   0  0  0  0  0  0  0  0  0  0  0  0
   -3.2860   15.7240   -3.9990 C   0  0  0  0  0  0  0  0  0  0  0  0
   -2.0920   16.3910   -4.8160 C   0  0  0  0  0  0  0  0  0  0  0  0
   -2.4460   17.4320   -5.9450 C   0  0  0  0  0  0  0  0  0  0  0  0
   -2.2410   18.9910   -5.7340 C   0  0  0  0  0  0  0  0  0  0  0  0
   -3.1330   19.8380   -6.7020 C   0  0  0  0  0  0  0  0  0  0  0  0
   -3.9490   20.9210   -6.1520 O   0  0  0  0  0  0  0  0  0  0  0  0
   -4.7610   21.5540   -7.1830 C   0  0  2  0  0  0  0  0  0  0  0  0
   -4.3390   21.0730   -8.4470 O   0  0  0  0  0  0  0  0  0  0  0  0
   -4.5880   23.0990   -7.2380 C   0  0  2  0  0  0  0  0  0  0  0  0
   -5.8600   23.7850   -7.3600 O   0  0  0  0  0  0  0  0  0  0  0  0
   -3.3190   21.9560   -8.9090 C   0  0  1  0  0  0  0  0  0  0  0  0
   -3.7780   23.3510   -8.5280 C   0  0  1  0  0  0  0  0  0  0  0  0
   -1.9610   21.6200   -8.3080 C   0  0  0  0  0  0  0  0  0  0  0  0
   -4.5370   23.9640   -9.5720 O   0  0  0  0  0  0  0  0  0  0  0  0
  2  1  1  1
  2  3  1  0
  2  4  1  0
  3  5  1  0
  3  6  1  6
  4  7  1  0
  5  8  1  6
  6  9  1  0
  8  9  1  0
  5 10  1  0
  7 10  1  0
  9 11  1  6
 11 12  1  0
 12 13  1  0
 13 14  1  0
 14 15  1  0
 15 16  1  0
 17 16  1  1
 17 18  1  0
 17 19  1  0
 19 20  1  6
 18 21  1  0
 19 22  1  0
 21 22  1  0
 21 23  1  1
 22 24  1  6
M  END
>  <%Rank>  (1134) 
86.48855

>  <N_hits>  (1134) 
2

>  <submitter_name>  (1134) 
nan

>  <original SMILES>  (1134) 
nan

>  <∆G_unbound>  (1134) 
0.335171

>  <∆G_bound>  (1134) 
-7.26992

>  <regarded>  (1134) 
5L9K_0_A_δ,mArh-5cb5_G_0_G_α

>  <ref_pdb>  (1134) 
nan

>  <smiles>  (1134) 
CC1OC(OCCCCCC2NC3NCNC(N)C3N2)C(O)C1O

>  <submitter_email>  (1134) 
nan

>  <disregarded>  (1134) 


>  <LE>  (1134) 
-0.316879

>  <submitter_institution>  (1134) 
nan

>  <ref_mols>  (1134) 
5L9K_0_A,mArh-5cb5_G_0_G

>  <N_constrained_atoms>  (1134) 
19.0

>  <ref_url>  (1134) 
nan

>  <method>  (1134) 
nan

>  <comRMSD>  (1134) 
1.80443

>  <N_unconstrained_atoms>  (1134) 
5.0

>  <∆∆G>  (1134) 
-7.605092

>  <runtime>  (1134) 
40.573843

>  <generation_date>  (1134) 
nan

$$$$
mArh-4jca_0_A_α-5CMS_0_J_β
     RDKit          3D

 27 26  0  0  0  0  0  0  0  0999 V2000
   -0.1570    7.3530   -5.3640 C   0  0  0  0  0  0  0  0  0  0  0  0
    0.3530    8.7910   -5.4060 C   0  0  0  0  0  0  0  0  0  0  0  0
    0.6750    9.8120   -4.2480 C   0  0  0  0  0  0  0  0  0  0  0  0
    0.3920    6.3060   -4.8990 O   0  0  0  0  0  0  0  0  0  0  0  0
   -1.3600    7.0240   -5.8670 O   0  0  0  0  0  0  0  0  0  0  0  0
    1.3160   10.9220   -5.1370 C   0  0  0  0  0  0  0  0  0  0  0  0
   -0.3470   10.5940   -3.4760 C   0  0  0  0  0  0  0  0  0  0  0  0
    1.5140    9.4830   -3.2500 O   0  0  0  0  0  0  0  0  0  0  0  0
    1.6520   10.3480   -6.4830 C   0  0  0  0  0  0  0  0  0  0  0  0
   -1.5990   10.4160   -3.5830 O   0  0  0  0  0  0  0  0  0  0  0  0
    0.0560   11.5420   -2.5700 O   0  0  0  0  0  0  0  0  0  0  0  0
    2.2440    9.2420   -6.5690 O   0  0  0  0  0  0  0  0  0  0  0  0
    1.3510   10.9620   -7.6810 O   0  0  0  0  0  0  0  0  0  0  0  0
    0.8670   12.6510   -2.6850 C   0  0  0  0  0  0  0  0  0  0  0  0
    0.4370   14.0080   -3.1000 C   0  0  0  0  0  0  0  0  0  0  0  0
    1.2900   14.9310   -3.8990 C   0  0  0  0  0  0  0  0  0  0  0  0
    0.7520   16.3300   -4.1370 C   0  0  0  0  0  0  0  0  0  0  0  0
   -0.4190   16.3450   -5.0830 C   0  0  0  0  0  0  0  0  0  0  0  0
   -0.5930   17.4650   -5.8510 O   0  0  0  0  0  0  0  0  0  0  0  0
   -1.9360   18.1770   -5.9590 P   0  0  0  0  0  0  0  0  0  0  0  0
   -1.2660   19.6640   -6.2590 O   0  0  0  0  0  0  0  0  0  0  0  0
   -2.5400   17.2300   -7.1180 O   0  0  0  0  0  0  0  0  0  0  0  0
   -2.3130   17.7900   -4.4770 O   0  0  0  0  0  0  0  0  0  0  0  0
   -0.5210   19.5490   -7.7060 P   0  0  0  0  0  0  0  0  0  0  0  0
    0.1260   20.9250   -7.6150 O   0  0  0  0  0  0  0  0  0  0  0  0
    0.8840   18.7730   -7.7850 O   0  0  0  0  0  0  0  0  0  0  0  0
   -1.3100   19.9770   -9.0460 O   0  0  0  0  0  0  0  0  0  0  0  0
  1  2  1  0
  2  3  1  0
  1  4  2  0
  1  5  1  0
  3  6  1  0
  3  7  1  0
  3  8  1  0
  6  9  1  0
  7 10  2  0
  7 11  1  0
  9 12  2  0
  9 13  1  0
 11 14  1  0
 14 15  1  0
 15 16  1  0
 16 17  1  0
 17 18  1  0
 18 19  1  0
 19 20  1  0
 20 21  1  0
 20 22  1  0
 20 23  1  0
 21 24  1  0
 24 25  1  0
 24 26  1  0
 24 27  1  0
M  CHG  2  22  -1  26  -1
M  END
>  <%Rank>  (1135) 
86.564885

>  <N_hits>  (1135) 
2

>  <submitter_name>  (1135) 
nan

>  <original SMILES>  (1135) 
nan

>  <∆G_unbound>  (1135) 
3.115107

>  <∆G_bound>  (1135) 
1.717596

>  <regarded>  (1135) 
mArh-4jca_0_A_α,5CMS_0_J_β

>  <ref_pdb>  (1135) 
nan

>  <smiles>  (1135) 
O=C(O)CC(O)(CC(=O)O)C(=O)OCCCCCO[PH]([O-])(O)O[PH]([O-])(O)O

>  <submitter_email>  (1135) 
nan

>  <disregarded>  (1135) 


>  <LE>  (1135) 
-0.05176

>  <submitter_institution>  (1135) 
nan

>  <ref_mols>  (1135) 
mArh-4jca_0_A,5CMS_0_J

>  <N_constrained_atoms>  (1135) 
22.0

>  <ref_url>  (1135) 
nan

>  <method>  (1135) 
nan

>  <comRMSD>  (1135) 
1.748127

>  <N_unconstrained_atoms>  (1135) 
5.0

>  <∆∆G>  (1135) 
-1.397511

>  <runtime>  (1135) 
49.161056

>  <generation_date>  (1135) 
nan

$$$$
5CB5_0_L_β-mArh-5cms_J_9_J_α
     RDKit          3D

 16 17  0  0  0  0  0  0  0  0999 V2000
   -0.8570   21.5090   -7.3620 O   0  0  0  0  0  0  0  0  0  0  0  0
   -0.7470   19.8860   -7.7800 P   0  0  0  0  0  0  0  0  0  0  0  0
   -1.9840   18.9250   -7.2320 O   0  0  0  0  0  0  0  0  0  0  0  0
   -2.0530   21.7240   -7.9000 N   0  0  0  0  0  0  0  0  0  0  0  0
   -1.3920   20.3600   -9.1200 O   0  0  0  0  0  0  0  0  0  0  0  0
    0.4140   19.1070   -8.5420 O   0  0  0  0  0  0  0  0  0  0  0  0
   -1.6560   21.7610   -9.1720 C   0  0  1  0  0  0  0  0  0  0  0  0
   -2.8550   22.8940   -7.7820 C   0  0  0  0  0  0  0  0  0  0  0  0
   -1.7240   17.9970   -6.0240 P   0  0  0  0  0  0  0  0  0  0  0  0
   -3.8780   22.6030   -8.8320 C   0  0  2  0  0  0  0  0  0  0  0  0
   -2.9140   22.3380   -9.8760 C   0  0  1  0  0  0  0  0  0  0  0  0
   -0.1500   17.6770   -6.4050 O   0  0  0  0  0  0  0  0  0  0  0  0
   -2.8680   17.0550   -6.7170 O   0  0  0  0  0  0  0  0  0  0  0  0
   -2.0750   19.1100   -4.9190 O   0  0  0  0  0  0  0  0  0  0  0  0
   -2.7840   23.7000  -10.1360 O   0  0  0  0  0  0  0  0  0  0  0  0
   -4.6260   23.7250   -9.2490 O   0  0  0  0  0  0  0  0  0  0  0  0
  1  2  1  0
  2  3  1  0
  1  4  1  0
  2  5  1  0
  2  6  1  0
  4  7  1  0
  7  5  1  6
  4  8  1  0
  3  9  1  0
  8 10  1  0
  7 11  1  0
 10 11  1  0
  9 12  1  0
  9 13  1  0
  9 14  1  0
 11 15  1  1
 10 16  1  6
M  CHG  1  13  -1
M  END
>  <%Rank>  (1136) 
86.641221

>  <N_hits>  (1136) 
2

>  <submitter_name>  (1136) 
nan

>  <original SMILES>  (1136) 
nan

>  <∆G_unbound>  (1136) 
1.413513

>  <∆G_bound>  (1136) 
-5.719127

>  <regarded>  (1136) 
5CB5_0_L_β,mArh-5cms_J_9_J_α

>  <ref_pdb>  (1136) 
nan

>  <smiles>  (1136) 
[O-][PH](O)(O)O[PH]1(O)OC2C(O)C(O)CN2O1

>  <submitter_email>  (1136) 
nan

>  <disregarded>  (1136) 


>  <LE>  (1136) 
-0.44579

>  <submitter_institution>  (1136) 
nan

>  <ref_mols>  (1136) 
5CB5_0_L,mArh-5cms_J_9_J

>  <N_constrained_atoms>  (1136) 
16.0

>  <ref_url>  (1136) 
nan

>  <method>  (1136) 
nan

>  <comRMSD>  (1136) 
1.97307

>  <N_unconstrained_atoms>  (1136) 
0.0

>  <∆∆G>  (1136) 
-7.132639

>  <runtime>  (1136) 
34.491622

>  <generation_date>  (1136) 
nan

$$$$
5FUD_0_A_α-5CMS_0_E_α
     RDKit          3D

 20 21  0  0  0  0  0  0  0  0999 V2000
   -2.6020   18.4790   -7.2130 O   0  0  0  0  0  0  0  0  0  0  0  0
   -1.7330   19.8240   -7.3470 S   0  0  0  0  0  0  0  0  0  0  0  0
   -0.6520   19.7220   -6.1980 O   0  0  0  0  0  0  0  0  0  0  0  0
   -0.9950   19.9200   -8.7740 O   0  0  0  0  0  0  0  0  0  0  0  0
   -2.7220   21.3340   -7.0400 C   0  0  2  0  0  0  0  0  0  0  0  0
   -3.6250   21.2730   -5.8190 C   0  0  0  0  0  0  0  0  0  0  0  0
   -3.5560   22.0250   -8.1440 C   0  0  2  0  0  0  0  0  0  0  0  0
   -4.5320   22.4340   -5.9020 N   0  0  0  0  0  0  0  0  0  0  0  0
   -4.9020   21.5950   -8.4250 O   0  0  0  0  0  0  0  0  0  0  0  0
   -2.9500   22.1940   -9.4520 C   0  0  1  0  0  0  0  0  0  0  0  0
   -2.2280   21.0430   -9.8380 O   0  0  0  0  0  0  0  0  0  0  0  0
   -5.5990   22.2510   -6.9070 C   0  0  0  0  0  0  0  0  0  0  0  0
   -3.7560   23.6720   -6.1180 C   0  0  0  0  0  0  0  0  0  0  0  0
   -5.3350   22.3210   -9.5810 C   0  0  2  0  0  0  0  0  0  0  0  0
   -4.0950   22.6090  -10.3940 C   0  0  1  0  0  0  0  0  0  0  0  0
   -5.9040   23.5710   -9.2110 O   0  0  0  0  0  0  0  0  0  0  0  0
   -4.0330   23.9970  -10.7530 O   0  0  0  0  0  0  0  0  0  0  0  0
   -5.9640   23.4270   -7.8760 C   0  0  0  0  0  0  0  0  0  0  0  0
   -4.5610   24.7640   -6.7070 C   0  0  0  0  0  0  0  0  0  0  0  0
   -4.9660   24.4250   -8.0090 O   0  0  0  0  0  0  0  0  0  0  0  0
  2  1  1  0
  2  3  1  0
  2  4  1  0
  2  5  1  0
  5  6  1  1
  5  7  1  0
  6  8  1  0
  7  9  1  6
  7 10  1  0
 10 11  1  6
  8 12  1  0
  8 13  1  0
  9 14  1  0
 10 15  1  0
 14 15  1  0
 14 16  1  1
 15 17  1  1
 12 18  1  0
 13 19  1  0
 18 20  1  0
 19 20  1  0
M  END
>  <%Rank>  (1137) 
86.717557

>  <N_hits>  (1137) 
2

>  <submitter_name>  (1137) 
nan

>  <original SMILES>  (1137) 
nan

>  <∆G_unbound>  (1137) 
2.5949

>  <∆G_bound>  (1137) 
4.771056

>  <regarded>  (1137) 
5FUD_0_A_α,5CMS_0_E_α

>  <ref_pdb>  (1137) 
nan

>  <smiles>  (1137) 
OC1OC(C(CN2CCOCC2)S(O)(O)O)C(O)C1O

>  <submitter_email>  (1137) 
nan

>  <disregarded>  (1137) 


>  <LE>  (1137) 
0.108808

>  <submitter_institution>  (1137) 
nan

>  <ref_mols>  (1137) 
5FUD_0_A,5CMS_0_E

>  <N_constrained_atoms>  (1137) 
20.0

>  <ref_url>  (1137) 
nan

>  <method>  (1137) 
nan

>  <comRMSD>  (1137) 
1.783021

>  <N_unconstrained_atoms>  (1137) 
0.0

>  <∆∆G>  (1137) 
2.176156

>  <runtime>  (1137) 
109.501056

>  <generation_date>  (1137) 
nan

$$$$
5CB5_0_L_δ-mArh-5cms_C_2_C_α
     RDKit          3D

 25 27  0  0  0  0  0  0  0  0999 V2000
   -3.3430   14.7880    1.7130 N   0  0  0  0  0  0  0  0  0  0  0  0
   -2.6350   15.5300    0.6940 C   0  0  2  0  0  0  0  0  0  0  0  0
   -2.5700   14.8200   -0.6620 C   0  0  2  0  0  0  0  0  0  0  0  0
   -1.2970   15.6270    1.2330 N   0  0  0  0  0  0  0  0  0  0  0  0
   -1.1230   14.9210   -1.0830 C   0  0  2  0  0  0  0  0  0  0  0  0
   -3.2160   15.4860   -1.8390 N   0  0  0  0  0  0  0  0  0  0  0  0
   -0.5020   14.4080    1.0790 C   0  0  0  0  0  0  0  0  0  0  0  0
   -1.2060   14.5700   -2.4760 N   0  0  0  0  0  0  0  0  0  0  0  0
   -2.0730   15.6950   -2.7550 C   0  0  1  0  0  0  0  0  0  0  0  0
   -0.1660   14.2290   -0.3100 N   0  0  0  0  0  0  0  0  0  0  0  0
   -2.3640   15.9830   -4.2450 C   0  0  0  0  0  0  0  0  0  0  0  0
   -1.7500   17.3400   -4.6920 C   0  0  0  0  0  0  0  0  0  0  0  0
   -0.9360   17.4640   -5.9770 C   0  0  0  0  0  0  0  0  0  0  0  0
   -0.2040   18.8000   -6.0300 C   0  0  0  0  0  0  0  0  0  0  0  0
   -0.0810   19.4730   -7.4080 C   0  0  0  0  0  0  0  0  0  0  0  0
   -0.7390   20.8620   -7.5420 C   0  0  0  0  0  0  0  0  0  0  0  0
   -2.0570   20.8460   -8.2980 C   0  0  0  0  0  0  0  0  0  0  0  0
   -2.8100   22.1400   -8.5810 C   0  0  2  0  0  0  0  0  0  0  0  0
   -3.7790   22.5940   -7.6330 O   0  0  0  0  0  0  0  0  0  0  0  0
   -3.7640   22.2330   -9.7630 C   0  0  1  0  0  0  0  0  0  0  0  0
   -5.0800   21.8370   -9.6500 O   0  0  0  0  0  0  0  0  0  0  0  0
   -4.4160   23.6970   -8.3230 C   0  0  2  0  0  0  0  0  0  0  0  0
   -3.7240   23.7160   -9.6400 C   0  0  2  0  0  0  0  0  0  0  0  0
   -4.0870   24.8880   -7.6670 O   0  0  0  0  0  0  0  0  0  0  0  0
   -4.2990   24.4680  -10.7310 O   0  0  0  0  0  0  0  0  0  0  0  0
  2  1  1  1
  2  3  1  0
  2  4  1  0
  3  5  1  0
  3  6  1  6
  4  7  1  0
  5  8  1  6
  6  9  1  0
  8  9  1  0
  5 10  1  0
  7 10  1  0
  9 11  1  6
 11 12  1  0
 12 13  1  0
 13 14  1  0
 14 15  1  0
 15 16  1  0
 16 17  1  0
 18 17  1  1
 18 19  1  0
 18 20  1  0
 20 21  1  1
 19 22  1  0
 20 23  1  0
 22 23  1  0
 22 24  1  1
 23 25  1  6
M  END
>  <%Rank>  (1138) 
86.793893

>  <N_hits>  (1138) 
2

>  <submitter_name>  (1138) 
nan

>  <original SMILES>  (1138) 
nan

>  <∆G_unbound>  (1138) 
2.610404

>  <∆G_bound>  (1138) 
-3.51913

>  <regarded>  (1138) 
5CB5_0_L_δ,mArh-5cms_C_2_C_α

>  <ref_pdb>  (1138) 
nan

>  <smiles>  (1138) 
NC1NCNC2NC(CCCCCCCC3OC(O)C(O)C3O)NC12

>  <submitter_email>  (1138) 
nan

>  <disregarded>  (1138) 


>  <LE>  (1138) 
-0.245181

>  <submitter_institution>  (1138) 
nan

>  <ref_mols>  (1138) 
5CB5_0_L,mArh-5cms_C_2_C

>  <N_constrained_atoms>  (1138) 
19.0

>  <ref_url>  (1138) 
nan

>  <method>  (1138) 
nan

>  <comRMSD>  (1138) 
1.797904

>  <N_unconstrained_atoms>  (1138) 
6.0

>  <∆∆G>  (1138) 
-6.129534

>  <runtime>  (1138) 
30.235564

>  <generation_date>  (1138) 
nan

$$$$
mArh-5l9k_B_0_B_α-5LW0_0_A_δ
     RDKit          3D

 26 28  0  0  0  0  0  0  0  0999 V2000
   -2.5710   21.6420   -8.7290 C   0  0  0  0  0  0  0  0  0  0  0  0
   -3.3550   22.6870   -7.9810 C   0  0  2  0  0  0  0  0  0  0  0  0
   -3.8960   22.0480   -6.8350 O   0  0  0  0  0  0  0  0  0  0  0  0
   -4.4980   23.4250   -8.6860 C   0  0  1  0  0  0  0  0  0  0  0  0
   -4.9450   22.8340   -9.9020 O   0  0  0  0  0  0  0  0  0  0  0  0
   -5.2860   22.2840   -6.7190 C   0  0  1  0  0  0  0  0  0  0  0  0
   -5.6330   23.4130   -7.6610 C   0  0  1  0  0  0  0  0  0  0  0  0
   -5.8430   21.0540   -7.0250 O   0  0  0  0  0  0  0  0  0  0  0  0
   -5.6360   24.5330   -6.7870 O   0  0  0  0  0  0  0  0  0  0  0  0
   -4.6290   20.2850   -7.0820 C   0  0  0  0  0  0  0  0  0  0  0  0
   -3.6360   20.7000   -5.9650 C   0  0  0  0  0  0  0  0  0  0  0  0
   -2.3300   19.8680   -5.8870 C   0  0  0  0  0  0  0  0  0  0  0  0
   -2.3090   18.3710   -6.2770 C   0  0  0  0  0  0  0  0  0  0  0  0
   -1.7080   17.4210   -5.2040 C   0  0  0  0  0  0  0  0  0  0  0  0
   -2.4490   16.1050   -4.8350 C   0  0  0  0  0  0  0  0  0  0  0  0
   -2.8930   15.9400   -3.3590 C   0  0  0  0  0  0  0  0  0  0  0  0
   -2.8040   14.5780   -2.6660 C   0  0  1  0  0  0  0  0  0  0  0  0
   -1.4730   14.3780   -2.1430 N   0  0  0  0  0  0  0  0  0  0  0  0
   -3.6670   14.5080   -1.4860 N   0  0  0  0  0  0  0  0  0  0  0  0
   -1.4410   14.9520   -0.8100 C   0  0  1  0  0  0  0  0  0  0  0  0
   -2.8970   15.2200   -0.4420 C   0  0  2  0  0  0  0  0  0  0  0  0
   -0.7740   13.9830    0.0170 N   0  0  0  0  0  0  0  0  0  0  0  0
   -3.1140   14.7260    0.9910 C   0  0  2  0  0  0  0  0  0  0  0  0
   -4.1480   15.4720    1.6970 N   0  0  0  0  0  0  0  0  0  0  0  0
   -0.6680   14.4390    1.3770 C   0  0  0  0  0  0  0  0  0  0  0  0
   -1.9760   14.9180    1.8410 N   0  0  0  0  0  0  0  0  0  0  0  0
  2  1  1  6
  2  3  1  0
  2  4  1  0
  4  5  1  6
  3  6  1  0
  4  7  1  0
  6  7  1  0
  6  8  1  6
  7  9  1  1
  8 10  1  0
 10 11  1  0
 11 12  1  0
 12 13  1  0
 13 14  1  0
 14 15  1  0
 15 16  1  0
 17 16  1  1
 17 18  1  0
 17 19  1  0
 20 18  1  6
 21 19  1  6
 20 21  1  0
 20 22  1  0
 21 23  1  0
 23 24  1  1
 22 25  1  0
 23 26  1  0
 25 26  1  0
M  END
>  <%Rank>  (1139) 
86.870229

>  <N_hits>  (1139) 
2

>  <submitter_name>  (1139) 
nan

>  <original SMILES>  (1139) 
nan

>  <∆G_unbound>  (1139) 
0.40203

>  <∆G_bound>  (1139) 
-8.125945

>  <regarded>  (1139) 
mArh-5l9k_B_0_B_α,5LW0_0_A_δ

>  <ref_pdb>  (1139) 
nan

>  <smiles>  (1139) 
CC1OC(OCCCCCCCC2NC3NCNC(N)C3N2)C(O)C1O

>  <submitter_email>  (1139) 
nan

>  <disregarded>  (1139) 


>  <LE>  (1139) 
-0.327999

>  <submitter_institution>  (1139) 
nan

>  <ref_mols>  (1139) 
mArh-5l9k_B_0_B,5LW0_0_A

>  <N_constrained_atoms>  (1139) 
19.0

>  <ref_url>  (1139) 
nan

>  <method>  (1139) 
nan

>  <comRMSD>  (1139) 
1.828156

>  <N_unconstrained_atoms>  (1139) 
7.0

>  <∆∆G>  (1139) 
-8.527975

>  <runtime>  (1139) 
54.112325

>  <generation_date>  (1139) 
nan

$$$$
mArh-5cms_O_14_O_α-mArh-5cb5_A_0_A_β
     RDKit          3D

 19 19  0  0  0  0  0  0  0  0999 V2000
   -1.7010   21.7710   -7.1730 C   0  0  0  0  0  0  0  0  0  0  0  0
   -1.4600   22.5310   -8.4240 C   0  0  1  0  0  0  0  0  0  0  0  0
   -1.9200   21.7280   -9.5010 O   0  0  0  0  0  0  0  0  0  0  0  0
   -2.2690   23.8120   -8.4970 C   0  0  2  0  0  0  0  0  0  0  0  0
   -2.6930   24.2740   -7.2310 O   0  0  0  0  0  0  0  0  0  0  0  0
   -3.3070   21.9390   -9.4640 C   0  0  2  0  0  0  0  0  0  0  0  0
   -3.5430   23.4260   -9.2420 C   0  0  2  0  0  0  0  0  0  0  0  0
   -3.7890   21.2500   -8.3290 O   0  0  0  0  0  0  0  0  0  0  0  0
   -3.7420   24.1590  -10.4660 O   0  0  0  0  0  0  0  0  0  0  0  0
   -2.6890   20.7170   -7.5370 C   0  0  0  0  0  0  0  0  0  0  0  0
   -1.6390   20.2180   -8.3900 O   0  0  0  0  0  0  0  0  0  0  0  0
   -0.2150   19.7530   -7.8080 P   0  0  2  0  0  0  0  0  0  0  0  0
   -0.3480   18.9310   -6.4590 O   0  0  0  0  0  0  0  0  0  0  0  0
    0.8410   20.8070   -7.7350 O   0  0  0  0  0  0  0  0  0  0  0  0
    0.1080   18.5960   -8.8510 O   0  0  0  0  0  0  0  0  0  0  0  0
   -1.6530   18.2110   -5.9320 P   0  0  0  0  0  0  0  0  0  0  0  0
   -1.1630   16.8970   -5.1850 O   0  0  0  0  0  0  0  0  0  0  0  0
   -2.7120   17.9570   -6.9340 O   0  0  0  0  0  0  0  0  0  0  0  0
   -2.1580   19.1390   -4.7340 O   0  0  0  0  0  0  0  0  0  0  0  0
  2  1  1  1
  2  3  1  0
  2  4  1  0
  4  5  1  1
  3  6  1  0
  4  7  1  0
  6  7  1  0
  6  8  1  1
  7  9  1  6
  8 10  1  0
 10 11  1  0
 11 12  1  0
 12 13  1  0
 12 14  2  0
 12 15  1  6
 13 16  1  0
 16 17  1  0
 16 18  2  0
 16 19  1  0
M  END
>  <%Rank>  (1140) 
86.946565

>  <N_hits>  (1140) 
2

>  <submitter_name>  (1140) 
nan

>  <original SMILES>  (1140) 
nan

>  <∆G_unbound>  (1140) 
0.767522

>  <∆G_bound>  (1140) 
-1.527041

>  <regarded>  (1140) 
mArh-5cms_O_14_O_α,mArh-5cb5_A_0_A_β

>  <ref_pdb>  (1140) 
nan

>  <smiles>  (1140) 
CC1OC(OCOP(=O)(O)OP(=O)(O)O)C(O)C1O

>  <submitter_email>  (1140) 
nan

>  <disregarded>  (1140) 


>  <LE>  (1140) 
-0.120767

>  <submitter_institution>  (1140) 
nan

>  <ref_mols>  (1140) 
mArh-5cms_O_14_O,mArh-5cb5_A_0_A

>  <N_constrained_atoms>  (1140) 
18.0

>  <ref_url>  (1140) 
nan

>  <method>  (1140) 
nan

>  <comRMSD>  (1140) 
1.874584

>  <N_unconstrained_atoms>  (1140) 
1.0

>  <∆∆G>  (1140) 
-2.294564

>  <runtime>  (1140) 
47.751072

>  <generation_date>  (1140) 
nan

$$$$
mArh-x0933_0_A_α-5CB5_0_L_α
     RDKit          3D

 21 22  0  0  0  0  0  0  0  0999 V2000
   -6.0470   14.6020    1.3070 N   0  0  0  0  0  0  0  0  0  0  0  0
   -4.9310   15.0560    0.5520 C   0  0  1  0  0  0  0  0  0  0  0  0
   -3.8990   14.2860    1.0860 N   0  0  0  0  0  0  0  0  0  0  0  0
   -5.0950   14.6150   -0.8130 N   0  0  0  0  0  0  0  0  0  0  0  0
   -3.8320   14.5040   -1.6600 C   0  0  1  0  0  0  0  0  0  0  0  0
   -2.6370   14.7940    0.6290 C   0  0  0  0  0  0  0  0  0  0  0  0
   -3.8660   15.5990   -2.7750 C   0  0  0  0  0  0  0  0  0  0  0  0
   -2.4900   14.5050   -0.8710 C   0  0  0  0  0  0  0  0  0  0  0  0
   -3.1760   15.4090   -4.1970 C   0  0  0  0  0  0  0  0  0  0  0  0
   -2.4000   16.6520   -4.8380 C   0  0  0  0  0  0  0  0  0  0  0  0
   -2.9610   17.2310   -6.1830 C   0  0  0  0  0  0  0  0  0  0  0  0
   -2.8100   18.8080   -6.5120 C   0  0  0  0  0  0  0  0  0  0  0  0
   -4.0690   19.5750   -6.8870 O   0  0  0  0  0  0  0  0  0  0  0  0
   -3.7910   20.9880   -7.0810 C   0  0  1  0  0  0  0  0  0  0  0  0
   -2.9420   21.1290   -8.1680 O   0  0  0  0  0  0  0  0  0  0  0  0
   -4.7980   22.1820   -7.3870 C   0  0  2  0  0  0  0  0  0  0  0  0
   -5.8210   22.0130   -8.3560 O   0  0  0  0  0  0  0  0  0  0  0  0
   -2.5700   22.3640   -7.6490 C   0  0  2  0  0  0  0  0  0  0  0  0
   -3.7850   23.2680   -7.8710 C   0  0  1  0  0  0  0  0  0  0  0  0
   -1.1500   22.6740   -7.9260 C   0  0  0  0  0  0  0  0  0  0  0  0
   -4.0940   23.7240   -9.2120 O   0  0  0  0  0  0  0  0  0  0  0  0
  2  1  1  1
  2  3  1  0
  2  4  1  0
  4  5  1  0
  3  6  1  0
  5  7  1  6
  5  8  1  0
  6  8  1  0
  7  9  1  0
  9 10  1  0
 10 11  1  0
 11 12  1  0
 12 13  1  0
 14 13  1  6
 14 15  1  0
 14 16  1  0
 16 17  1  6
 15 18  1  0
 16 19  1  0
 18 19  1  0
 18 20  1  6
 19 21  1  6
M  END
>  <%Rank>  (1141) 
87.022901

>  <N_hits>  (1141) 
2

>  <submitter_name>  (1141) 
nan

>  <original SMILES>  (1141) 
nan

>  <∆G_unbound>  (1141) 
0.231526

>  <∆G_bound>  (1141) 
-5.317252

>  <regarded>  (1141) 
mArh-x0933_0_A_α,5CB5_0_L_α

>  <ref_pdb>  (1141) 
nan

>  <smiles>  (1141) 
CC1OC(OCCCCCC2CCNC(N)N2)C(O)C1O

>  <submitter_email>  (1141) 
nan

>  <disregarded>  (1141) 


>  <LE>  (1141) 
-0.264228

>  <submitter_institution>  (1141) 
nan

>  <ref_mols>  (1141) 
mArh-x0933_0_A,5CB5_0_L

>  <N_constrained_atoms>  (1141) 
16.0

>  <ref_url>  (1141) 
nan

>  <method>  (1141) 
nan

>  <comRMSD>  (1141) 
1.775613

>  <N_unconstrained_atoms>  (1141) 
5.0

>  <∆∆G>  (1141) 
-5.548778

>  <runtime>  (1141) 
43.408357

>  <generation_date>  (1141) 
nan

$$$$
5CMS_0_B_α-6WOJ_0_B_γ
     RDKit          3D

 24 25  0  0  0  0  0  0  0  0999 V2000
   -3.4100   22.1220   -8.1520 C   0  0  0  0  0  0  0  0  0  0  0  0
   -2.7890   22.7870   -9.3600 C   0  0  2  0  0  0  0  0  0  0  0  0
   -3.4610   23.9460   -9.7650 O   0  0  0  0  0  0  0  0  0  0  0  0
   -2.8200   21.9630  -10.6140 C   0  0  2  0  0  0  0  0  0  0  0  0
   -1.8240   21.0080  -10.4800 O   0  0  0  0  0  0  0  0  0  0  0  0
   -2.6820   24.2880  -10.9100 C   0  0  2  0  0  0  0  0  0  0  0  0
   -2.4760   23.0040  -11.6530 C   0  0  2  0  0  0  0  0  0  0  0  0
   -1.4030   24.7910  -10.5290 O   0  0  0  0  0  0  0  0  0  0  0  0
   -3.3420   22.9950  -12.7760 O   0  0  0  0  0  0  0  0  0  0  0  0
   -0.9420   21.4490   -9.4350 C   0  0  0  0  0  0  0  0  0  0  0  0
   -0.5090   20.3120   -8.5210 C   0  0  0  0  0  0  0  0  0  0  0  0
   -1.6080   19.8640   -7.6340 C   0  0  0  0  0  0  0  0  0  0  0  0
   -1.2030   20.0090   -6.2300 C   0  0  0  0  0  0  0  0  0  0  0  0
   -1.9850   19.0930   -5.3910 C   0  0  0  0  0  0  0  0  0  0  0  0
   -1.5800   17.6520   -5.6430 C   0  0  0  0  0  0  0  0  0  0  0  0
   -0.5920   17.2100   -4.5830 C   0  0  0  0  0  0  0  0  0  0  0  0
    0.7010   16.6670   -5.1320 C   0  0  0  0  0  0  0  0  0  0  0  0
    1.1650   15.4320   -4.3590 C   0  0  1  0  0  0  0  0  0  0  0  0
    0.5100   15.4460   -3.0710 O   0  0  0  0  0  0  0  0  0  0  0  0
    0.8290   14.0900   -5.0250 C   0  0  1  0  0  0  0  0  0  0  0  0
    1.9830   13.2750   -5.1760 O   0  0  0  0  0  0  0  0  0  0  0  0
   -0.5770   14.5190   -3.1240 C   0  0  0  0  0  0  0  0  0  0  0  0
   -0.1800   13.4240   -4.0950 C   0  0  1  0  0  0  0  0  0  0  0  0
   -1.2730   12.8640   -4.7980 O   0  0  0  0  0  0  0  0  0  0  0  0
  2  1  1  1
  2  3  1  0
  2  4  1  0
  4  5  1  1
  3  6  1  0
  4  7  1  0
  6  7  1  0
  6  8  1  1
  7  9  1  6
  5 10  1  0
 10 11  1  0
 11 12  1  0
 12 13  1  0
 13 14  1  0
 14 15  1  0
 15 16  1  0
 16 17  1  0
 18 17  1  6
 18 19  1  0
 18 20  1  0
 20 21  1  1
 19 22  1  0
 20 23  1  0
 22 23  1  0
 23 24  1  6
M  END
>  <%Rank>  (1142) 
87.099237

>  <N_hits>  (1142) 
2

>  <submitter_name>  (1142) 
nan

>  <original SMILES>  (1142) 
nan

>  <∆G_unbound>  (1142) 
0.508415

>  <∆G_bound>  (1142) 
-5.380371

>  <regarded>  (1142) 
5CMS_0_B_α,6WOJ_0_B_γ

>  <ref_pdb>  (1142) 
nan

>  <smiles>  (1142) 
CC1OC(O)C(O)C1OCCCCCCCCC1OCC(O)C1O

>  <submitter_email>  (1142) 
nan

>  <disregarded>  (1142) 


>  <LE>  (1142) 
-0.245366

>  <submitter_institution>  (1142) 
nan

>  <ref_mols>  (1142) 
5CMS_0_B,6WOJ_0_B

>  <N_constrained_atoms>  (1142) 
17.0

>  <ref_url>  (1142) 
nan

>  <method>  (1142) 
nan

>  <comRMSD>  (1142) 
1.753187

>  <N_unconstrained_atoms>  (1142) 
7.0

>  <∆∆G>  (1142) 
-5.888786

>  <runtime>  (1142) 
39.75132

>  <generation_date>  (1142) 
nan

$$$$
5CMS_0_O_α-mArh-x0228_0_B_β
     RDKit          3D

 18 19  0  0  0  0  0  0  0  0999 V2000
   -1.2660   20.1940   -8.0120 C   0  0  0  0  0  0  0  0  0  0  0  0
   -1.9050   21.3260   -8.7770 C   0  0  1  0  0  0  0  0  0  0  0  0
   -3.3260   21.2290   -8.9460 O   0  0  0  0  0  0  0  0  0  0  0  0
   -1.7450   22.6470   -8.0810 C   0  0  1  0  0  0  0  0  0  0  0  0
   -0.4730   23.2190   -8.3450 O   0  0  0  0  0  0  0  0  0  0  0  0
   -3.5600   22.4160   -9.6670 C   0  0  2  0  0  0  0  0  0  0  0  0
   -2.8590   23.4160   -8.7390 C   0  0  2  0  0  0  0  0  0  0  0  0
   -4.8820   22.8110  -10.0760 O   0  0  0  0  0  0  0  0  0  0  0  0
   -2.1050   24.3030   -9.4340 O   0  0  0  0  0  0  0  0  0  0  0  0
   -4.8360   23.7650  -11.0790 C   0  0  0  0  0  0  0  0  0  0  0  0
   -5.8410   23.8710  -12.0420 C   0  0  0  0  0  0  0  0  0  0  0  0
   -3.8040   24.6340  -11.1740 C   0  0  0  0  0  0  0  0  0  0  0  0
   -5.7520   24.8470  -13.0700 C   0  0  0  0  0  0  0  0  0  0  0  0
   -3.6840   25.6090  -12.1690 C   0  0  0  0  0  0  0  0  0  0  0  0
   -6.7650   24.9450  -14.0420 N   0  0  0  0  0  0  0  0  0  0  0  0
   -4.6490   25.7250  -13.1310 C   0  0  0  0  0  0  0  0  0  0  0  0
   -4.6180   26.6380  -14.1610 O   0  0  0  0  0  0  0  0  0  0  0  0
   -3.3570   26.8240  -14.8100 C   0  0  0  0  0  0  0  0  0  0  0  0
  2  1  1  1
  2  3  1  0
  2  4  1  0
  4  5  1  6
  3  6  1  0
  4  7  1  0
  6  7  1  0
  6  8  1  1
  7  9  1  6
  8 10  1  0
 10 11  2  0
 10 12  1  0
 11 13  1  0
 12 14  2  0
 13 15  1  0
 13 16  2  0
 14 16  1  0
 16 17  1  0
 17 18  1  0
M  END
>  <%Rank>  (1143) 
87.175573

>  <N_hits>  (1143) 
2

>  <submitter_name>  (1143) 
nan

>  <original SMILES>  (1143) 
nan

>  <∆G_unbound>  (1143) 
0.157254

>  <∆G_bound>  (1143) 
-1.393642

>  <regarded>  (1143) 
5CMS_0_O_α,mArh-x0228_0_B_β

>  <ref_pdb>  (1143) 
nan

>  <smiles>  (1143) 
COc1ccc(OC2OC(C)C(O)C2O)cc1N

>  <submitter_email>  (1143) 
nan

>  <disregarded>  (1143) 


>  <LE>  (1143) 
-0.086161

>  <submitter_institution>  (1143) 
nan

>  <ref_mols>  (1143) 
5CMS_0_O,mArh-x0228_0_B

>  <N_constrained_atoms>  (1143) 
18.0

>  <ref_url>  (1143) 
nan

>  <method>  (1143) 
nan

>  <comRMSD>  (1143) 
1.923164

>  <N_unconstrained_atoms>  (1143) 
0.0

>  <∆∆G>  (1143) 
-1.550896

>  <runtime>  (1143) 
43.012354

>  <generation_date>  (1143) 
nan

$$$$
5L9K_0_A_α-4IQY_0_B_δ
     RDKit          3D

 26 28  0  0  0  0  0  0  0  0999 V2000
   -2.4220   21.6550   -8.8650 C   0  0  0  0  0  0  0  0  0  0  0  0
   -3.1700   22.5700   -7.9480 C   0  0  2  0  0  0  0  0  0  0  0  0
   -3.7110   21.6860   -7.0180 O   0  0  0  0  0  0  0  0  0  0  0  0
   -4.3050   23.4610   -8.4620 C   0  0  1  0  0  0  0  0  0  0  0  0
   -4.8170   23.1220   -9.7520 O   0  0  0  0  0  0  0  0  0  0  0  0
   -4.9150   22.1860   -6.5250 C   0  0  1  0  0  0  0  0  0  0  0  0
   -5.4150   23.3080   -7.4170 C   0  0  1  0  0  0  0  0  0  0  0  0
   -5.6890   21.0540   -6.6250 O   0  0  0  0  0  0  0  0  0  0  0  0
   -5.5710   24.4340   -6.5540 O   0  0  0  0  0  0  0  0  0  0  0  0
   -4.6830   20.1370   -7.0850 C   0  0  0  0  0  0  0  0  0  0  0  0
   -3.3010   20.1310   -6.3330 C   0  0  0  0  0  0  0  0  0  0  0  0
   -2.5560   18.7740   -6.5450 C   0  0  0  0  0  0  0  0  0  0  0  0
   -1.6710   18.2140   -5.3980 C   0  0  0  0  0  0  0  0  0  0  0  0
   -1.7050   16.6780   -5.0600 C   0  0  0  0  0  0  0  0  0  0  0  0
   -2.9800   15.8010   -5.2130 C   0  0  0  0  0  0  0  0  0  0  0  0
   -3.4810   14.8420   -4.0630 C   0  0  0  0  0  0  0  0  0  0  0  0
   -3.1470   15.1620   -2.5820 C   0  0  2  0  0  0  0  0  0  0  0  0
   -1.7470   14.8400   -2.3010 N   0  0  0  0  0  0  0  0  0  0  0  0
   -3.8850   14.4430   -1.5160 N   0  0  0  0  0  0  0  0  0  0  0  0
   -1.7250   14.4130   -0.9190 C   0  0  2  0  0  0  0  0  0  0  0  0
   -3.0540   14.9290   -0.4020 C   0  0  2  0  0  0  0  0  0  0  0  0
   -0.5220   14.8360   -0.2740 N   0  0  0  0  0  0  0  0  0  0  0  0
   -3.1720   14.4820    1.0430 C   0  0  2  0  0  0  0  0  0  0  0  0
   -3.8920   15.4360    1.8710 N   0  0  0  0  0  0  0  0  0  0  0  0
   -0.7170   15.1000    1.1340 C   0  0  0  0  0  0  0  0  0  0  0  0
   -1.8780   14.3910    1.7050 N   0  0  0  0  0  0  0  0  0  0  0  0
  2  1  1  6
  2  3  1  0
  2  4  1  0
  4  5  1  6
  3  6  1  0
  4  7  1  0
  6  7  1  0
  6  8  1  6
  7  9  1  1
  8 10  1  0
 10 11  1  0
 11 12  1  0
 12 13  1  0
 13 14  1  0
 14 15  1  0
 15 16  1  0
 17 16  1  6
 17 18  1  0
 17 19  1  0
 20 18  1  6
 21 19  1  6
 20 21  1  0
 20 22  1  0
 21 23  1  0
 23 24  1  1
 22 25  1  0
 23 26  1  0
 25 26  1  0
M  END
>  <%Rank>  (1144) 
87.251908

>  <N_hits>  (1144) 
2

>  <submitter_name>  (1144) 
nan

>  <original SMILES>  (1144) 
nan

>  <∆G_unbound>  (1144) 
0.40203

>  <∆G_bound>  (1144) 
-6.918155

>  <regarded>  (1144) 
5L9K_0_A_α,4IQY_0_B_δ

>  <ref_pdb>  (1144) 
nan

>  <smiles>  (1144) 
CC1OC(OCCCCCCCC2NC3NCNC(N)C3N2)C(O)C1O

>  <submitter_email>  (1144) 
nan

>  <disregarded>  (1144) 


>  <LE>  (1144) 
-0.281546

>  <submitter_institution>  (1144) 
nan

>  <ref_mols>  (1144) 
5L9K_0_A,4IQY_0_B

>  <N_constrained_atoms>  (1144) 
19.0

>  <ref_url>  (1144) 
nan

>  <method>  (1144) 
nan

>  <comRMSD>  (1144) 
1.863184

>  <N_unconstrained_atoms>  (1144) 
7.0

>  <∆∆G>  (1144) 
-7.320184

>  <runtime>  (1144) 
62.559362

>  <generation_date>  (1144) 
nan

$$$$
mArh-5cb5_K_0_K_γ-mArh-4jca_0_A_α
     RDKit          3D

 23 23  0  0  0  0  0  0  0  0999 V2000
   -1.3660   13.0500   -3.3250 O   0  0  0  0  0  0  0  0  0  0  0  0
   -1.1130   14.1780   -4.1740 C   0  0  1  0  0  0  0  0  0  0  0  0
   -2.0100   15.3170   -3.7920 C   0  0  0  0  0  0  0  0  0  0  0  0
    0.2640   14.7720   -3.8970 C   0  0  1  0  0  0  0  0  0  0  0  0
    1.2740   14.1100   -4.6240 O   0  0  0  0  0  0  0  0  0  0  0  0
   -1.3510   16.4720   -4.3450 O   0  0  0  0  0  0  0  0  0  0  0  0
    0.0770   16.2650   -4.2240 C   0  0  2  0  0  0  0  0  0  0  0  0
    0.7570   16.8290   -5.4600 C   0  0  0  0  0  0  0  0  0  0  0  0
    0.7890   13.5620   -5.8320 C   0  0  0  0  0  0  0  0  0  0  0  0
   -0.0130   12.3010   -5.5680 C   0  0  0  0  0  0  0  0  0  0  0  0
    0.9310   11.3440   -4.8580 C   0  0  1  0  0  0  0  0  0  0  0  0
    0.3530   10.0560   -4.2520 C   0  0  2  0  0  0  0  0  0  0  0  0
    2.0280   11.1040   -5.8450 C   0  0  0  0  0  0  0  0  0  0  0  0
   -0.1240    9.0510   -5.3300 C   0  0  0  0  0  0  0  0  0  0  0  0
    3.1920   11.3060   -5.6260 O   0  0  0  0  0  0  0  0  0  0  0  0
    1.6070   10.6380   -7.0400 O   0  0  0  0  0  0  0  0  0  0  0  0
   -0.5820   10.3980   -3.0800 C   0  0  0  0  0  0  0  0  0  0  0  0
    1.4610    9.5020   -3.5800 O   0  0  0  0  0  0  0  0  0  0  0  0
   -1.4190    8.3380   -5.1190 C   0  0  0  0  0  0  0  0  0  0  0  0
   -1.7980   10.4510   -3.0880 O   0  0  0  0  0  0  0  0  0  0  0  0
    0.1210   10.6280   -1.9440 O   0  0  0  0  0  0  0  0  0  0  0  0
   -1.6650    7.2370   -5.5890 O   0  0  0  0  0  0  0  0  0  0  0  0
   -2.2900    9.0050   -4.3390 O   0  0  0  0  0  0  0  0  0  0  0  0
  2  1  1  1
  2  3  1  0
  2  4  1  0
  4  5  1  6
  3  6  1  0
  4  7  1  0
  6  7  1  0
  7  8  1  6
  5  9  1  0
  9 10  1  0
 11 10  1  6
 11 12  1  0
 11 13  1  0
 12 14  1  0
 13 15  2  0
 13 16  1  0
 12 17  1  0
 12 18  1  1
 14 19  1  0
 17 20  2  0
 17 21  1  0
 19 22  2  0
 19 23  1  0
M  END
>  <%Rank>  (1145) 
87.328244

>  <N_hits>  (1145) 
2

>  <submitter_name>  (1145) 
nan

>  <original SMILES>  (1145) 
nan

>  <∆G_unbound>  (1145) 
6.383272

>  <∆G_bound>  (1145) 
4.462285

>  <regarded>  (1145) 
mArh-5cb5_K_0_K_γ,mArh-4jca_0_A_α

>  <ref_pdb>  (1145) 
nan

>  <smiles>  (1145) 
CC1OCC(O)C1OCCC(C(=O)O)C(O)(CC(=O)O)C(=O)O

>  <submitter_email>  (1145) 
nan

>  <disregarded>  (1145) 


>  <LE>  (1145) 
-0.083521

>  <submitter_institution>  (1145) 
nan

>  <ref_mols>  (1145) 
mArh-5cb5_K_0_K,mArh-4jca_0_A

>  <N_constrained_atoms>  (1145) 
21.0

>  <ref_url>  (1145) 
nan

>  <method>  (1145) 
nan

>  <comRMSD>  (1145) 
1.940989

>  <N_unconstrained_atoms>  (1145) 
2.0

>  <∆∆G>  (1145) 
-1.920988

>  <runtime>  (1145) 
46.559191

>  <generation_date>  (1145) 
nan

$$$$
2FAV_0_B_δ-mArh-5cms_M_12_M_α
     RDKit          3D

 25 27  0  0  0  0  0  0  0  0999 V2000
   -4.3400   15.0930    1.2150 N   0  0  0  0  0  0  0  0  0  0  0  0
   -2.9740   15.1840    0.7150 C   0  0  2  0  0  0  0  0  0  0  0  0
   -2.8440   14.6110   -0.7030 C   0  0  2  0  0  0  0  0  0  0  0  0
   -2.1720   14.3890    1.6420 N   0  0  0  0  0  0  0  0  0  0  0  0
   -1.3730   14.6200   -0.9740 C   0  0  2  0  0  0  0  0  0  0  0  0
   -3.3320   15.4230   -1.8560 N   0  0  0  0  0  0  0  0  0  0  0  0
   -0.7530   14.1990    1.2370 C   0  0  0  0  0  0  0  0  0  0  0  0
   -1.3270   14.3910   -2.3950 N   0  0  0  0  0  0  0  0  0  0  0  0
   -2.1370   15.5670   -2.7060 C   0  0  1  0  0  0  0  0  0  0  0  0
   -0.6080   13.7730   -0.1420 N   0  0  0  0  0  0  0  0  0  0  0  0
   -2.4350   15.8090   -4.1920 C   0  0  0  0  0  0  0  0  0  0  0  0
   -1.3430   16.6600   -4.8750 C   0  0  0  0  0  0  0  0  0  0  0  0
   -1.7620   17.8420   -5.7620 C   0  0  0  0  0  0  0  0  0  0  0  0
   -0.5370   18.5420   -6.3530 C   0  0  0  0  0  0  0  0  0  0  0  0
   -0.8070   19.5030   -7.5200 C   0  0  0  0  0  0  0  0  0  0  0  0
   -1.9540   20.5220   -7.3950 C   0  0  0  0  0  0  0  0  0  0  0  0
   -2.0560   21.4380   -8.6190 C   0  0  0  0  0  0  0  0  0  0  0  0
   -3.4300   21.9900   -9.0850 C   0  0  2  0  0  0  0  0  0  0  0  0
   -3.7090   21.7170  -10.4590 O   0  0  0  0  0  0  0  0  0  0  0  0
   -3.5780   23.5070   -9.0000 C   0  0  1  0  0  0  0  0  0  0  0  0
   -2.3570   24.1450   -8.7360 O   0  0  0  0  0  0  0  0  0  0  0  0
   -4.6500   22.6560  -10.9900 C   0  0  2  0  0  0  0  0  0  0  0  0
   -4.4490   23.9590  -10.2290 C   0  0  2  0  0  0  0  0  0  0  0  0
   -5.9780   22.2320  -10.8350 O   0  0  0  0  0  0  0  0  0  0  0  0
   -3.9060   24.9460  -11.1490 O   0  0  0  0  0  0  0  0  0  0  0  0
  2  1  1  1
  2  3  1  0
  2  4  1  0
  3  5  1  0
  3  6  1  6
  4  7  1  0
  5  8  1  6
  6  9  1  0
  8  9  1  0
  5 10  1  0
  7 10  1  0
  9 11  1  6
 11 12  1  0
 12 13  1  0
 13 14  1  0
 14 15  1  0
 15 16  1  0
 16 17  1  0
 18 17  1  6
 18 19  1  0
 18 20  1  0
 20 21  1  6
 19 22  1  0
 20 23  1  0
 22 23  1  0
 22 24  1  1
 23 25  1  6
M  END
>  <%Rank>  (1146) 
87.40458

>  <N_hits>  (1146) 
2

>  <submitter_name>  (1146) 
nan

>  <original SMILES>  (1146) 
nan

>  <∆G_unbound>  (1146) 
2.610404

>  <∆G_bound>  (1146) 
-6.0002

>  <regarded>  (1146) 
2FAV_0_B_δ,mArh-5cms_M_12_M_α

>  <ref_pdb>  (1146) 
nan

>  <smiles>  (1146) 
NC1NCNC2NC(CCCCCCCC3OC(O)C(O)C3O)NC12

>  <submitter_email>  (1146) 
nan

>  <disregarded>  (1146) 


>  <LE>  (1146) 
-0.344424

>  <submitter_institution>  (1146) 
nan

>  <ref_mols>  (1146) 
2FAV_0_B,mArh-5cms_M_12_M

>  <N_constrained_atoms>  (1146) 
19.0

>  <ref_url>  (1146) 
nan

>  <method>  (1146) 
nan

>  <comRMSD>  (1146) 
1.943916

>  <N_unconstrained_atoms>  (1146) 
6.0

>  <∆∆G>  (1146) 
-8.610604

>  <runtime>  (1146) 
43.852017

>  <generation_date>  (1146) 
nan

$$$$
5CB5_0_G_β-3VFQ_0_A_β
     RDKit          3D

 15 14  0  0  0  0  0  0  0  0999 V2000
   -1.8740   20.7950   -8.2930 O   0  0  0  0  0  0  0  0  0  0  0  0
   -0.7320   20.1370   -7.2910 P   0  0  0  0  0  0  0  0  0  0  0  0
   -1.1730   19.3500   -5.8790 O   0  0  0  0  0  0  0  0  0  0  0  0
    0.8490   20.5400   -7.5830 O   0  0  0  0  0  0  0  0  0  0  0  0
   -0.5680   18.8800   -8.1610 O   0  0  0  0  0  0  0  0  0  0  0  0
   -1.4010   17.8700   -5.9630 P   0  0  0  0  0  0  0  0  0  0  0  0
    0.1710   17.5290   -6.1280 O   0  0  0  0  0  0  0  0  0  0  0  0
   -2.4670   18.2970   -7.1170 N   0  0  0  0  0  0  0  0  0  0  0  0
   -2.2750   17.3650   -4.6430 O   0  0  0  0  0  0  0  0  0  0  0  0
   -3.0410   19.4690   -6.9010 O   0  0  0  0  0  0  0  0  0  0  0  0
   -3.2500   17.2640   -7.0470 O   0  0  0  0  0  0  0  0  0  0  0  0
   -2.9570   15.9440   -4.7510 P   0  0  0  0  0  0  0  0  0  0  0  0
   -3.4760   15.9070   -3.1810 O   0  0  0  0  0  0  0  0  0  0  0  0
   -3.9780   16.3010   -5.9680 O   0  0  0  0  0  0  0  0  0  0  0  0
   -1.5220   15.2600   -5.1060 O   0  0  0  0  0  0  0  0  0  0  0  0
  1  2  1  0
  2  3  1  0
  2  4  1  0
  2  5  1  0
  3  6  1  0
  6  7  1  0
  6  8  1  0
  6  9  1  0
  8 10  1  0
  8 11  1  0
  9 12  1  0
 12 13  1  0
 12 14  1  0
 12 15  1  0
M  CHG  2   4  -1  14  -1
M  END
>  <%Rank>  (1147) 
87.480916

>  <N_hits>  (1147) 
2

>  <submitter_name>  (1147) 
nan

>  <original SMILES>  (1147) 
nan

>  <∆G_unbound>  (1147) 
4.225091

>  <∆G_bound>  (1147) 
3.237893

>  <regarded>  (1147) 
5CB5_0_G_β,3VFQ_0_A_β

>  <ref_pdb>  (1147) 
nan

>  <smiles>  (1147) 
[O-][PH](O)(O)O[PH](O)(O[PH]([O-])(O)O)N(O)O

>  <submitter_email>  (1147) 
nan

>  <disregarded>  (1147) 


>  <LE>  (1147) 
-0.065813

>  <submitter_institution>  (1147) 
nan

>  <ref_mols>  (1147) 
5CB5_0_G,3VFQ_0_A

>  <N_constrained_atoms>  (1147) 
15.0

>  <ref_url>  (1147) 
nan

>  <method>  (1147) 
nan

>  <comRMSD>  (1147) 
1.888014

>  <N_unconstrained_atoms>  (1147) 
0.0

>  <∆∆G>  (1147) 
-0.987198

>  <runtime>  (1147) 
29.362896

>  <generation_date>  (1147) 
nan

$$$$
5CMS_0_P_β-mArh-4jca_0_A_α
     RDKit          3D

 27 26  0  0  0  0  0  0  0  0999 V2000
   -0.7050   21.2770   -8.1200 O   0  0  0  0  0  0  0  0  0  0  0  0
    0.0110   19.8080   -7.8040 P   0  0  0  0  0  0  0  0  0  0  0  0
   -1.0550   19.5440   -6.7880 O   0  0  0  0  0  0  0  0  0  0  0  0
    1.2630   19.6760   -6.7940 O   0  0  0  0  0  0  0  0  0  0  0  0
   -0.3850   18.4810   -8.6720 O   0  0  0  0  0  0  0  0  0  0  0  0
   -1.4170   18.1600   -6.0200 P   0  0  0  0  0  0  0  0  0  0  0  0
   -0.4520   17.5390   -4.8660 O   0  0  0  0  0  0  0  0  0  0  0  0
   -2.7320   17.2650   -6.5970 O   0  0  0  0  0  0  0  0  0  0  0  0
   -2.3030   18.9420   -5.0850 O   0  0  0  0  0  0  0  0  0  0  0  0
   -0.2140   16.1990   -4.7470 C   0  0  0  0  0  0  0  0  0  0  0  0
    1.2780   15.9680   -4.6810 C   0  0  0  0  0  0  0  0  0  0  0  0
    1.5670   14.5990   -4.1320 C   0  0  0  0  0  0  0  0  0  0  0  0
    1.4990   13.4820   -5.1320 C   0  0  0  0  0  0  0  0  0  0  0  0
    2.7180   12.5610   -4.9030 C   0  0  0  0  0  0  0  0  0  0  0  0
    2.8000   11.6290   -5.9990 O   0  0  0  0  0  0  0  0  0  0  0  0
    1.7020   10.8680   -6.3120 C   0  0  0  0  0  0  0  0  0  0  0  0
    1.7930   10.0330   -7.2430 O   0  0  0  0  0  0  0  0  0  0  0  0
    0.4550   10.9990   -5.5780 C   0  0  0  0  0  0  0  0  0  0  0  0
    0.2090    9.7660   -4.8040 C   0  0  2  0  0  0  0  0  0  0  0  0
   -0.0240    8.5840   -5.8170 C   0  0  0  0  0  0  0  0  0  0  0  0
   -0.6480   10.2860   -3.6990 C   0  0  0  0  0  0  0  0  0  0  0  0
    1.3790    9.5660   -4.0580 O   0  0  0  0  0  0  0  0  0  0  0  0
   -0.5110    7.1540   -5.6970 C   0  0  0  0  0  0  0  0  0  0  0  0
   -1.8460   10.6460   -3.8060 O   0  0  0  0  0  0  0  0  0  0  0  0
   -0.0660   10.4000   -2.4440 O   0  0  0  0  0  0  0  0  0  0  0  0
   -1.6630    6.8510   -6.0350 O   0  0  0  0  0  0  0  0  0  0  0  0
    0.1800    6.0310   -5.2880 O   0  0  0  0  0  0  0  0  0  0  0  0
  1  2  1  0
  2  3  1  0
  2  4  1  0
  2  5  1  0
  3  6  1  0
  6  7  1  0
  6  8  1  0
  6  9  1  0
  7 10  1  0
 10 11  1  0
 11 12  1  0
 12 13  1  0
 13 14  1  0
 14 15  1  0
 15 16  1  0
 16 17  2  0
 16 18  1  0
 18 19  1  0
 19 20  1  0
 19 21  1  0
 19 22  1  1
 20 23  1  0
 21 24  2  0
 21 25  1  0
 23 26  2  0
 23 27  1  0
M  CHG  2   4  -1   8  -1
M  END
>  <%Rank>  (1148) 
87.557252

>  <N_hits>  (1148) 
2

>  <submitter_name>  (1148) 
nan

>  <original SMILES>  (1148) 
nan

>  <∆G_unbound>  (1148) 
3.233192

>  <∆G_bound>  (1148) 
-0.74249

>  <regarded>  (1148) 
5CMS_0_P_β,mArh-4jca_0_A_α

>  <ref_pdb>  (1148) 
nan

>  <smiles>  (1148) 
O=C(O)CC(O)(CC(=O)OCCCCCO[PH]([O-])(O)O[PH]([O-])(O)O)C(=O)O

>  <submitter_email>  (1148) 
nan

>  <disregarded>  (1148) 


>  <LE>  (1148) 
-0.147247

>  <submitter_institution>  (1148) 
nan

>  <ref_mols>  (1148) 
5CMS_0_P,mArh-4jca_0_A

>  <N_constrained_atoms>  (1148) 
22.0

>  <ref_url>  (1148) 
nan

>  <method>  (1148) 
nan

>  <comRMSD>  (1148) 
1.96858

>  <N_unconstrained_atoms>  (1148) 
5.0

>  <∆∆G>  (1148) 
-3.975682

>  <runtime>  (1148) 
76.683453

>  <generation_date>  (1148) 
nan

$$$$
mArh-4jca_0_A_α-5CMS_0_G_α
     RDKit          3D

 27 26  0  0  0  0  0  0  0  0999 V2000
    0.4860    9.6690   -2.8420 C   0  0  0  0  0  0  0  0  0  0  0  0
    0.0010    9.5980   -4.1330 C   0  0  0  0  0  0  0  0  0  0  0  0
    0.3660   10.8260   -4.4930 C   0  0  1  0  0  0  0  0  0  0  0  0
    1.4920    9.0750   -2.6460 O   0  0  0  0  0  0  0  0  0  0  0  0
   -0.1330   10.2630   -1.7960 O   0  0  0  0  0  0  0  0  0  0  0  0
    0.3510   11.1520   -5.8880 C   0  0  0  0  0  0  0  0  0  0  0  0
   -0.2800   11.5830   -3.4230 C   0  0  0  0  0  0  0  0  0  0  0  0
    1.7500   10.7670   -4.0930 O   0  0  0  0  0  0  0  0  0  0  0  0
    1.6130   10.8180   -6.4890 C   0  0  0  0  0  0  0  0  0  0  0  0
   -1.5080   11.4140   -3.2180 O   0  0  0  0  0  0  0  0  0  0  0  0
    0.4050   12.3900   -2.5570 O   0  0  0  0  0  0  0  0  0  0  0  0
    1.7400    9.7960   -7.2630 O   0  0  0  0  0  0  0  0  0  0  0  0
    2.7530   11.5270   -6.2440 O   0  0  0  0  0  0  0  0  0  0  0  0
    2.9230   12.4120   -5.1260 C   0  0  0  0  0  0  0  0  0  0  0  0
    1.7560   13.4000   -5.1130 C   0  0  0  0  0  0  0  0  0  0  0  0
    1.9020   14.5550   -4.1460 C   0  0  0  0  0  0  0  0  0  0  0  0
    0.5900   15.3110   -3.9520 C   0  0  0  0  0  0  0  0  0  0  0  0
    0.3960   16.4670   -4.9360 C   0  0  0  0  0  0  0  0  0  0  0  0
   -0.9170   16.4430   -5.3640 O   0  0  0  0  0  0  0  0  0  0  0  0
   -1.5310   17.8450   -5.9170 P   0  0  0  0  0  0  0  0  0  0  0  0
   -2.2380   18.9540   -4.9130 O   0  0  0  0  0  0  0  0  0  0  0  0
   -2.8250   17.2370   -6.4250 O   0  0  0  0  0  0  0  0  0  0  0  0
   -1.3520   18.2760   -7.4820 O   0  0  0  0  0  0  0  0  0  0  0  0
   -0.4950   19.6170   -7.7230 P   0  0  0  0  0  0  0  0  0  0  0  0
   -1.2080   20.8350   -8.5680 O   0  0  0  0  0  0  0  0  0  0  0  0
    0.9960   19.7410   -7.0990 O   0  0  0  0  0  0  0  0  0  0  0  0
    0.1570   18.9630   -8.8810 O   0  0  0  0  0  0  0  0  0  0  0  0
  1  2  1  0
  2  3  1  0
  1  4  2  0
  1  5  1  0
  3  6  1  0
  3  7  1  0
  3  8  1  1
  6  9  1  0
  7 10  2  0
  7 11  1  0
  9 12  2  0
  9 13  1  0
 13 14  1  0
 14 15  1  0
 15 16  1  0
 16 17  1  0
 17 18  1  0
 18 19  1  0
 19 20  1  0
 20 21  1  0
 20 22  1  0
 20 23  1  0
 23 24  1  0
 24 25  1  0
 24 26  1  0
 24 27  1  0
M  CHG  2  21  -1  26  -1
M  END
>  <%Rank>  (1149) 
87.633588

>  <N_hits>  (1149) 
2

>  <submitter_name>  (1149) 
nan

>  <original SMILES>  (1149) 
nan

>  <∆G_unbound>  (1149) 
5.010693

>  <∆G_bound>  (1149) 
1.149256

>  <regarded>  (1149) 
mArh-4jca_0_A_α,5CMS_0_G_α

>  <ref_pdb>  (1149) 
nan

>  <smiles>  (1149) 
O=C(O)CC(O)(CC(=O)OCCCCCO[PH]([O-])(O)O[PH]([O-])(O)O)C(=O)O

>  <submitter_email>  (1149) 
nan

>  <disregarded>  (1149) 


>  <LE>  (1149) 
-0.143016

>  <submitter_institution>  (1149) 
nan

>  <ref_mols>  (1149) 
mArh-4jca_0_A,5CMS_0_G

>  <N_constrained_atoms>  (1149) 
22.0

>  <ref_url>  (1149) 
nan

>  <method>  (1149) 
nan

>  <comRMSD>  (1149) 
2.007303

>  <N_unconstrained_atoms>  (1149) 
5.0

>  <∆∆G>  (1149) 
-3.861437

>  <runtime>  (1149) 
61.887709

>  <generation_date>  (1149) 
nan

$$$$
5CB5_0_I_α-3VFQ_0_A_β
     RDKit          3D

 19 19  0  0  0  0  0  0  0  0999 V2000
   -1.8420   21.2590   -8.1710 C   0  0  0  0  0  0  0  0  0  0  0  0
   -3.2150   21.7150   -8.5740 C   0  0  1  0  0  0  0  0  0  0  0  0
   -4.2500   20.8440   -8.2860 O   0  0  0  0  0  0  0  0  0  0  0  0
   -3.6410   22.9590   -7.8850 C   0  0  1  0  0  0  0  0  0  0  0  0
   -4.5540   23.6710   -8.6590 O   0  0  0  0  0  0  0  0  0  0  0  0
   -4.2540   20.7650   -6.9190 C   0  0  2  0  0  0  0  0  0  0  0  0
   -4.2710   22.3360   -6.6210 C   0  0  2  0  0  0  0  0  0  0  0  0
   -3.2330   19.9720   -6.2740 O   0  0  0  0  0  0  0  0  0  0  0  0
   -5.5710   22.8170   -6.6530 O   0  0  0  0  0  0  0  0  0  0  0  0
   -3.1260   18.6060   -6.7730 C   0  0  0  0  0  0  0  0  0  0  0  0
   -2.5480   17.4150   -5.9970 N   0  0  0  0  0  0  0  0  0  0  0  0
   -1.0390   17.8630   -5.6050 P   0  0  0  0  0  0  0  0  0  0  0  0
   -3.2660   16.0400   -5.3870 P   0  0  0  0  0  0  0  0  0  0  0  0
   -0.9870   19.0790   -6.5140 O   0  0  0  0  0  0  0  0  0  0  0  0
   -1.0060   18.8350   -4.3050 O   0  0  0  0  0  0  0  0  0  0  0  0
    0.2740   17.1620   -6.2890 O   0  0  0  0  0  0  0  0  0  0  0  0
   -1.9400   15.0790   -5.6640 O   0  0  0  0  0  0  0  0  0  0  0  0
   -3.4300   16.3610   -3.8370 O   0  0  0  0  0  0  0  0  0  0  0  0
   -4.5360   16.0790   -6.4220 O   0  0  0  0  0  0  0  0  0  0  0  0
  2  1  1  1
  2  3  1  0
  2  4  1  0
  4  5  1  6
  3  6  1  0
  4  7  1  0
  6  7  1  0
  6  8  1  1
  7  9  1  6
  8 10  1  0
 10 11  1  0
 11 12  1  0
 11 13  1  0
 12 14  1  0
 12 15  1  0
 12 16  1  0
 13 17  1  0
 13 18  1  0
 13 19  1  0
M  CHG  2  15  -1  18  -1
M  END
>  <%Rank>  (1150) 
87.709924

>  <N_hits>  (1150) 
2

>  <submitter_name>  (1150) 
nan

>  <original SMILES>  (1150) 
nan

>  <∆G_unbound>  (1150) 
2.506039

>  <∆G_bound>  (1150) 
-0.120209

>  <regarded>  (1150) 
5CB5_0_I_α,3VFQ_0_A_β

>  <ref_pdb>  (1150) 
nan

>  <smiles>  (1150) 
CC1OC(OCN([PH]([O-])(O)O)[PH]([O-])(O)O)C(O)C1O

>  <submitter_email>  (1150) 
nan

>  <disregarded>  (1150) 


>  <LE>  (1150) 
-0.138224

>  <submitter_institution>  (1150) 
nan

>  <ref_mols>  (1150) 
5CB5_0_I,3VFQ_0_A

>  <N_constrained_atoms>  (1150) 
18.0

>  <ref_url>  (1150) 
nan

>  <method>  (1150) 
nan

>  <comRMSD>  (1150) 
2.024485

>  <N_unconstrained_atoms>  (1150) 
1.0

>  <∆∆G>  (1150) 
-2.626248

>  <runtime>  (1150) 
42.389368

>  <generation_date>  (1150) 
nan

$$$$
mArh-6woj_A_0_A_α-5CMS_0_A_δ
     RDKit          3D

 24 26  0  0  0  0  0  0  0  0999 V2000
   -2.0390   21.4700   -8.7350 C   0  0  0  0  0  0  0  0  0  0  0  0
   -2.8570   22.1120   -7.6650 C   0  0  2  0  0  0  0  0  0  0  0  0
   -4.0610   21.4230   -7.4410 O   0  0  0  0  0  0  0  0  0  0  0  0
   -3.3570   23.5440   -7.7840 C   0  0  1  0  0  0  0  0  0  0  0  0
   -4.2040   23.8170   -8.9080 O   0  0  0  0  0  0  0  0  0  0  0  0
   -4.3360   22.0370   -6.2020 C   0  0  2  0  0  0  0  0  0  0  0  0
   -4.1450   23.5530   -6.4570 C   0  0  2  0  0  0  0  0  0  0  0  0
   -3.3230   21.5690   -5.3320 O   0  0  0  0  0  0  0  0  0  0  0  0
   -5.4160   24.2250   -6.6010 O   0  0  0  0  0  0  0  0  0  0  0  0
   -3.0240   20.2100   -5.6250 C   0  0  0  0  0  0  0  0  0  0  0  0
   -1.6880   19.5370   -5.9810 C   0  0  0  0  0  0  0  0  0  0  0  0
   -1.3240   18.3670   -4.9840 C   0  0  0  0  0  0  0  0  0  0  0  0
   -1.8790   16.9450   -5.3500 C   0  0  0  0  0  0  0  0  0  0  0  0
   -2.6660   15.9650   -4.3640 C   0  0  0  0  0  0  0  0  0  0  0  0
   -2.4040   15.7740   -2.8210 C   0  0  2  0  0  0  0  0  0  0  0  0
   -1.2570   14.9500   -2.4670 N   0  0  0  0  0  0  0  0  0  0  0  0
   -3.4820   15.2850   -1.9010 N   0  0  0  0  0  0  0  0  0  0  0  0
   -1.4760   14.6500   -1.0660 C   0  0  2  0  0  0  0  0  0  0  0  0
   -2.6810   15.4550   -0.6600 C   0  0  2  0  0  0  0  0  0  0  0  0
   -0.3480   14.8410   -0.2140 N   0  0  0  0  0  0  0  0  0  0  0  0
   -3.0500   14.9180    0.7490 C   0  0  2  0  0  0  0  0  0  0  0  0
   -4.1760   15.5610    1.4120 N   0  0  0  0  0  0  0  0  0  0  0  0
   -0.6750   14.5160    1.1610 C   0  0  0  0  0  0  0  0  0  0  0  0
   -1.8990   15.1870    1.5960 N   0  0  0  0  0  0  0  0  0  0  0  0
  2  1  1  6
  2  3  1  0
  2  4  1  0
  4  5  1  6
  3  6  1  0
  4  7  1  0
  6  7  1  0
  6  8  1  1
  7  9  1  6
  8 10  1  0
 10 11  1  0
 11 12  1  0
 12 13  1  0
 13 14  1  0
 15 14  1  6
 15 16  1  0
 15 17  1  0
 18 16  1  6
 19 17  1  6
 18 19  1  0
 18 20  1  0
 19 21  1  0
 21 22  1  1
 20 23  1  0
 21 24  1  0
 23 24  1  0
M  END
>  <%Rank>  (1151) 
87.78626

>  <N_hits>  (1151) 
2

>  <submitter_name>  (1151) 
nan

>  <original SMILES>  (1151) 
nan

>  <∆G_unbound>  (1151) 
0.639202

>  <∆G_bound>  (1151) 
-9.100549

>  <regarded>  (1151) 
mArh-6woj_A_0_A_α,5CMS_0_A_δ

>  <ref_pdb>  (1151) 
nan

>  <smiles>  (1151) 
CC1OC(OCCCCCC2NC3NCNC(N)C3N2)C(O)C1O

>  <submitter_email>  (1151) 
nan

>  <disregarded>  (1151) 


>  <LE>  (1151) 
-0.405823

>  <submitter_institution>  (1151) 
nan

>  <ref_mols>  (1151) 
mArh-6woj_A_0_A,5CMS_0_A

>  <N_constrained_atoms>  (1151) 
19.0

>  <ref_url>  (1151) 
nan

>  <method>  (1151) 
nan

>  <comRMSD>  (1151) 
2.078036

>  <N_unconstrained_atoms>  (1151) 
5.0

>  <∆∆G>  (1151) 
-9.739752

>  <runtime>  (1151) 
47.191592

>  <generation_date>  (1151) 
nan

$$$$
mArh-EU0087_0_A_α-mArh-mac-194_0_A_α
     RDKit          3D

 21 23  0  0  0  0  0  0  0  0999 V2000
   -3.0550   15.8960   -1.7850 N   0  0  0  0  0  0  0  0  0  0  0  0
   -3.7720   15.1480   -2.7290 C   0  0  0  0  0  0  0  0  0  0  0  0
   -3.5300   15.5010   -4.1730 C   0  0  0  0  0  0  0  0  0  0  0  0
   -1.9350   15.5910   -1.0740 C   0  0  0  0  0  0  0  0  0  0  0  0
   -4.5790   14.2080   -2.3960 N   0  0  0  0  0  0  0  0  0  0  0  0
   -1.7850   15.5010    0.2360 N   0  0  0  0  0  0  0  0  0  0  0  0
   -0.4880   15.2670   -1.9600 S   0  0  0  0  0  0  0  0  0  0  0  0
    0.3570   14.9890   -0.5010 C   0  0  0  0  0  0  0  0  0  0  0  0
   -0.4880   15.1590    0.5640 C   0  0  0  0  0  0  0  0  0  0  0  0
   -4.4940   14.0880   -1.0630 C   0  0  0  0  0  0  0  0  0  0  0  0
   -5.4570   14.2390   -0.0700 C   0  0  0  0  0  0  0  0  0  0  0  0
   -3.1790   13.7760   -0.7480 C   0  0  0  0  0  0  0  0  0  0  0  0
   -6.9000   14.5690   -0.2520 C   0  0  0  0  0  0  0  0  0  0  0  0
   -5.0290   14.0680    1.2400 C   0  0  0  0  0  0  0  0  0  0  0  0
   -2.7760   13.6160    0.5370 C   0  0  0  0  0  0  0  0  0  0  0  0
   -7.4370   14.8170   -1.3250 O   0  0  0  0  0  0  0  0  0  0  0  0
   -7.6570   14.5860    0.9090 N   0  0  0  0  0  0  0  0  0  0  0  0
   -5.8680   14.1950    2.3170 N   0  0  0  0  0  0  0  0  0  0  0  0
   -3.7020   13.7620    1.5280 C   0  0  0  0  0  0  0  0  0  0  0  0
   -7.0950   14.4440    2.1470 C   0  0  0  0  0  0  0  0  0  0  0  0
   -7.8270   14.5640    3.2700 N   0  0  0  0  0  0  0  0  0  0  0  0
  1  2  1  0
  2  3  1  0
  1  4  1  0
  2  5  2  3
  4  6  2  0
  4  7  1  0
  7  8  1  0
  6  9  1  0
  8  9  2  0
  5 10  1  0
 10 11  1  0
 10 12  2  0
 11 13  1  0
 11 14  2  0
 12 15  1  0
 13 16  2  0
 13 17  1  0
 14 18  1  0
 14 19  1  0
 15 19  2  0
 17 20  1  0
 18 20  2  0
 20 21  1  0
M  END
>  <%Rank>  (1152) 
87.862595

>  <N_hits>  (1152) 
2

>  <submitter_name>  (1152) 
nan

>  <original SMILES>  (1152) 
nan

>  <∆G_unbound>  (1152) 
1.002895

>  <∆G_bound>  (1152) 
-2.474536

>  <regarded>  (1152) 
mArh-EU0087_0_A_α,mArh-mac-194_0_A_α

>  <ref_pdb>  (1152) 
nan

>  <smiles>  (1152) 
CC(=Nc1cccc2nc(N)[nH]c(=O)c12)Nc1nccs1

>  <submitter_email>  (1152) 
nan

>  <disregarded>  (1152) 


>  <LE>  (1152) 
-0.165592

>  <submitter_institution>  (1152) 
nan

>  <ref_mols>  (1152) 
mArh-EU0087_0_A,mArh-mac-194_0_A

>  <N_constrained_atoms>  (1152) 
21.0

>  <ref_url>  (1152) 
nan

>  <method>  (1152) 
nan

>  <comRMSD>  (1152) 
2.12966

>  <N_unconstrained_atoms>  (1152) 
0.0

>  <∆∆G>  (1152) 
-3.477431

>  <runtime>  (1152) 
58.56755

>  <generation_date>  (1152) 
nan

$$$$
mArh-4jca_0_A_α-5CB5_0_H_δ
     RDKit          3D

 26 27  0  0  0  0  0  0  0  0999 V2000
   -0.9520    8.1780   -5.4070 C   0  0  0  0  0  0  0  0  0  0  0  0
   -0.4490    9.5940   -5.5480 C   0  0  0  0  0  0  0  0  0  0  0  0
    0.2510   10.2590   -4.3390 C   0  0  0  0  0  0  0  0  0  0  0  0
   -2.0840    7.9020   -5.0470 O   0  0  0  0  0  0  0  0  0  0  0  0
   -0.0510    7.2270   -5.7370 O   0  0  0  0  0  0  0  0  0  0  0  0
    0.9220   11.5500   -4.7920 C   0  0  0  0  0  0  0  0  0  0  0  0
   -0.7370   10.5250   -3.1840 C   0  0  0  0  0  0  0  0  0  0  0  0
    1.2670    9.3950   -3.8920 O   0  0  0  0  0  0  0  0  0  0  0  0
    1.9570   11.3200   -5.8500 C   0  0  0  0  0  0  0  0  0  0  0  0
   -1.9490   10.4540   -3.2760 O   0  0  0  0  0  0  0  0  0  0  0  0
   -0.0440   10.8330   -2.0360 O   0  0  0  0  0  0  0  0  0  0  0  0
    1.8900   10.5430   -6.7800 O   0  0  0  0  0  0  0  0  0  0  0  0
    3.0380   12.0920   -5.6640 O   0  0  0  0  0  0  0  0  0  0  0  0
    0.4300   12.2010   -1.9760 C   0  0  0  0  0  0  0  0  0  0  0  0
   -0.3120   13.0960   -2.9680 C   0  0  0  0  0  0  0  0  0  0  0  0
   -1.8370   13.0000   -2.8210 C   0  0  0  0  0  0  0  0  0  0  0  0
   -2.5240   14.1550   -2.2570 N   0  0  0  0  0  0  0  0  0  0  0  0
   -2.4260   14.3370   -0.8310 C   0  0  2  0  0  0  0  0  0  0  0  0
   -3.9780   14.2180   -2.5060 C   0  0  0  0  0  0  0  0  0  0  0  0
   -3.5750   15.2870   -0.5720 C   0  0  1  0  0  0  0  0  0  0  0  0
   -4.6360   14.5200   -1.2190 N   0  0  0  0  0  0  0  0  0  0  0  0
   -1.1410   14.7480   -0.3100 N   0  0  0  0  0  0  0  0  0  0  0  0
   -1.2270   15.0150    1.1150 C   0  0  0  0  0  0  0  0  0  0  0  0
   -3.5670   15.5980    0.9350 C   0  0  1  0  0  0  0  0  0  0  0  0
   -4.8360   15.3340    1.5790 N   0  0  0  0  0  0  0  0  0  0  0  0
   -2.5760   14.7780    1.6130 N   0  0  0  0  0  0  0  0  0  0  0  0
  1  2  1  0
  2  3  1  0
  1  4  2  0
  1  5  1  0
  3  6  1  0
  3  7  1  0
  3  8  1  0
  6  9  1  0
  7 10  2  0
  7 11  1  0
  9 12  2  0
  9 13  1  0
 11 14  1  0
 14 15  1  0
 15 16  1  0
 16 17  1  0
 17 18  1  0
 17 19  1  0
 18 20  1  0
 19 21  1  0
 20 21  1  1
 18 22  1  6
 22 23  1  0
 20 24  1  0
 24 25  1  1
 23 26  1  0
 24 26  1  0
M  END
>  <%Rank>  (1153) 
87.938931

>  <N_hits>  (1153) 
2

>  <submitter_name>  (1153) 
nan

>  <original SMILES>  (1153) 
nan

>  <∆G_unbound>  (1153) 
2.626511

>  <∆G_bound>  (1153) 
0.82212

>  <regarded>  (1153) 
mArh-4jca_0_A_α,5CB5_0_H_δ

>  <ref_pdb>  (1153) 
nan

>  <smiles>  (1153) 
NC1NCNC2C1NCN2CCCOC(=O)C(O)(CC(=O)O)CC(=O)O

>  <submitter_email>  (1153) 
nan

>  <disregarded>  (1153) 


>  <LE>  (1153) 
-0.0694

>  <submitter_institution>  (1153) 
nan

>  <ref_mols>  (1153) 
mArh-4jca_0_A,5CB5_0_H

>  <N_constrained_atoms>  (1153) 
23.0

>  <ref_url>  (1153) 
nan

>  <method>  (1153) 
nan

>  <comRMSD>  (1153) 
2.077794

>  <N_unconstrained_atoms>  (1153) 
3.0

>  <∆∆G>  (1153) 
-1.804391

>  <runtime>  (1153) 
81.48908

>  <generation_date>  (1153) 
nan

$$$$
3VFQ_0_A_β-mArh-EU0860_0_A_α
     RDKit          3D

 22 22  0  0  0  0  0  0  0  0999 V2000
   -2.2320   18.0800   -7.1370 O   0  0  0  0  0  0  0  0  0  0  0  0
   -2.2420   17.0740   -5.9210 P   0  0  0  0  0  0  0  0  0  0  0  0
   -2.7720   16.2860   -4.9400 O   0  0  0  0  0  0  0  0  0  0  0  0
   -2.0890   18.2510   -4.7890 O   0  0  0  0  0  0  0  0  0  0  0  0
   -3.3810   16.1580   -6.5460 O   0  0  0  0  0  0  0  0  0  0  0  0
   -3.6500   15.3740   -4.1100 P   0  0  0  0  0  0  0  0  0  0  0  0
   -3.6710   15.0240   -7.0370 C   0  0  0  0  0  0  0  0  0  0  0  0
   -2.3120   15.3560   -3.4860 O   0  0  0  0  0  0  0  0  0  0  0  0
   -4.4230   15.6560   -5.5030 O   0  0  0  0  0  0  0  0  0  0  0  0
   -3.8770   13.7620   -4.2800 O   0  0  0  0  0  0  0  0  0  0  0  0
   -2.7700   13.9690   -6.2520 C   0  0  0  0  0  0  0  0  0  0  0  0
   -2.6170   12.6860   -7.0170 C   0  0  0  0  0  0  0  0  0  0  0  0
   -1.4870   11.9360   -6.2980 C   0  0  0  0  0  0  0  0  0  0  0  0
   -1.7610   10.5630   -5.8510 C   0  0  0  0  0  0  0  0  0  0  0  0
   -1.0980    9.4040   -6.5400 C   0  0  0  0  0  0  0  0  0  0  0  0
   -0.2210    9.7080   -7.7480 N   0  0  0  0  0  0  0  0  0  0  0  0
    0.4130    8.8340   -8.3360 C   0  0  0  0  0  0  0  0  0  0  0  0
   -0.0880   10.7660   -8.1940 N   0  0  0  0  0  0  0  0  0  0  0  0
    1.1260    9.4860   -9.4270 C   0  0  0  0  0  0  0  0  0  0  0  0
    0.6900   10.8080   -9.2070 C   0  0  0  0  0  0  0  0  0  0  0  0
    1.9740    8.8540  -10.3590 C   0  0  0  0  0  0  0  0  0  0  0  0
    2.1930    7.6890  -10.3990 O   0  0  0  0  0  0  0  0  0  0  0  0
  1  2  1  0
  2  3  1  0
  2  4  1  0
  2  5  1  0
  3  6  1  0
  5  7  1  0
  6  8  1  0
  6  9  1  0
  6 10  1  0
  7 11  1  0
 11 12  1  0
 12 13  1  0
 13 14  1  0
 14 15  1  0
 15 16  1  0
 16 17  1  0
 16 18  1  0
 17 19  2  0
 18 20  2  0
 19 20  1  0
 19 21  1  0
 21 22  2  0
M  CHG  2   4  -1   9  -1
M  END
>  <%Rank>  (1154) 
88.015267

>  <N_hits>  (1154) 
2

>  <submitter_name>  (1154) 
nan

>  <original SMILES>  (1154) 
nan

>  <∆G_unbound>  (1154) 
0.429969

>  <∆G_bound>  (1154) 
-0.669648

>  <regarded>  (1154) 
3VFQ_0_A_β,mArh-EU0860_0_A_α

>  <ref_pdb>  (1154) 
nan

>  <smiles>  (1154) 
O=Cc1cnn(CCCCCCO[PH]([O-])(O)O[PH]([O-])(O)O)c1

>  <submitter_email>  (1154) 
nan

>  <disregarded>  (1154) 


>  <LE>  (1154) 
-0.049983

>  <submitter_institution>  (1154) 
nan

>  <ref_mols>  (1154) 
3VFQ_0_A,mArh-EU0860_0_A

>  <N_constrained_atoms>  (1154) 
17.0

>  <ref_url>  (1154) 
nan

>  <method>  (1154) 
nan

>  <comRMSD>  (1154) 
1.874984

>  <N_unconstrained_atoms>  (1154) 
5.0

>  <∆∆G>  (1154) 
-1.099617

>  <runtime>  (1154) 
41.475758

>  <generation_date>  (1154) 
nan

$$$$
mArh-6woj_D_0_D_α-5MQX_0_A_δ
     RDKit          3D

 25 27  0  0  0  0  0  0  0  0999 V2000
   -1.7510   21.6620   -8.0200 C   0  0  0  0  0  0  0  0  0  0  0  0
   -3.1360   22.0600   -8.5310 C   0  0  1  0  0  0  0  0  0  0  0  0
   -4.1320   21.2100   -7.9540 O   0  0  0  0  0  0  0  0  0  0  0  0
   -3.5310   23.4940   -8.1450 C   0  0  1  0  0  0  0  0  0  0  0  0
   -4.3000   24.0770   -9.2020 O   0  0  0  0  0  0  0  0  0  0  0  0
   -4.3700   21.7970   -6.6950 C   0  0  2  0  0  0  0  0  0  0  0  0
   -4.4740   23.3080   -6.9710 C   0  0  1  0  0  0  0  0  0  0  0  0
   -3.2550   21.5080   -5.8750 O   0  0  0  0  0  0  0  0  0  0  0  0
   -4.0910   24.1290   -5.8680 O   0  0  0  0  0  0  0  0  0  0  0  0
   -2.9610   20.1090   -5.8800 C   0  0  0  0  0  0  0  0  0  0  0  0
   -1.5840   19.5530   -6.2720 C   0  0  0  0  0  0  0  0  0  0  0  0
   -1.0720   18.4980   -5.2410 C   0  0  0  0  0  0  0  0  0  0  0  0
   -1.6120   17.0480   -5.4150 C   0  0  0  0  0  0  0  0  0  0  0  0
   -2.3650   16.5130   -4.1730 C   0  0  0  0  0  0  0  0  0  0  0  0
   -2.4710   15.0380   -3.7230 C   0  0  0  0  0  0  0  0  0  0  0  0
   -2.3110   14.8530   -2.1870 C   0  0  2  0  0  0  0  0  0  0  0  0
   -1.6220   13.6570   -1.7580 N   0  0  0  0  0  0  0  0  0  0  0  0
   -3.5380   14.8250   -1.3630 N   0  0  0  0  0  0  0  0  0  0  0  0
   -1.8710   13.6890   -0.3450 C   0  0  2  0  0  0  0  0  0  0  0  0
   -2.7970   14.8710   -0.1060 C   0  0  2  0  0  0  0  0  0  0  0  0
   -0.6420   13.7560    0.3760 N   0  0  0  0  0  0  0  0  0  0  0  0
   -3.3190   14.4930    1.2600 C   0  0  2  0  0  0  0  0  0  0  0  0
   -4.1830   15.4390    1.9270 N   0  0  0  0  0  0  0  0  0  0  0  0
   -0.8490   14.5700    1.5330 C   0  0  0  0  0  0  0  0  0  0  0  0
   -2.1760   14.3140    2.1060 N   0  0  0  0  0  0  0  0  0  0  0  0
  2  1  1  1
  2  3  1  0
  2  4  1  0
  4  5  1  6
  3  6  1  0
  4  7  1  0
  6  7  1  0
  6  8  1  1
  7  9  1  1
  8 10  1  0
 10 11  1  0
 11 12  1  0
 12 13  1  0
 13 14  1  0
 14 15  1  0
 16 15  1  6
 16 17  1  0
 16 18  1  0
 19 17  1  6
 20 18  1  6
 19 20  1  0
 19 21  1  0
 20 22  1  0
 22 23  1  1
 21 24  1  0
 22 25  1  0
 24 25  1  0
M  END
>  <%Rank>  (1155) 
88.091603

>  <N_hits>  (1155) 
2

>  <submitter_name>  (1155) 
nan

>  <original SMILES>  (1155) 
nan

>  <∆G_unbound>  (1155) 
0.45278

>  <∆G_bound>  (1155) 
-7.484984

>  <regarded>  (1155) 
mArh-6woj_D_0_D_α,5MQX_0_A_δ

>  <ref_pdb>  (1155) 
nan

>  <smiles>  (1155) 
CC1OC(OCCCCCCC2NC3NCNC(N)C3N2)C(O)C1O

>  <submitter_email>  (1155) 
nan

>  <disregarded>  (1155) 


>  <LE>  (1155) 
-0.317511

>  <submitter_institution>  (1155) 
nan

>  <ref_mols>  (1155) 
mArh-6woj_D_0_D,5MQX_0_A

>  <N_constrained_atoms>  (1155) 
19.0

>  <ref_url>  (1155) 
nan

>  <method>  (1155) 
nan

>  <comRMSD>  (1155) 
2.044753

>  <N_unconstrained_atoms>  (1155) 
6.0

>  <∆∆G>  (1155) 
-7.937765

>  <runtime>  (1155) 
54.149738

>  <generation_date>  (1155) 
nan

$$$$
5CMS_0_M_δ-mArh-5cms_H_7_H_α
     RDKit          3D

 25 27  0  0  0  0  0  0  0  0999 V2000
   -3.8610   15.5540    1.6060 N   0  0  0  0  0  0  0  0  0  0  0  0
   -2.8180   14.8590    0.8640 C   0  0  1  0  0  0  0  0  0  0  0  0
   -2.5880   15.4580   -0.5350 C   0  0  1  0  0  0  0  0  0  0  0  0
   -1.6560   15.0480    1.6930 N   0  0  0  0  0  0  0  0  0  0  0  0
   -1.3300   14.8200   -1.1070 C   0  0  2  0  0  0  0  0  0  0  0  0
   -3.6160   15.1090   -1.5550 N   0  0  0  0  0  0  0  0  0  0  0  0
   -0.3710   14.6740    1.0940 C   0  0  0  0  0  0  0  0  0  0  0  0
   -1.8170   13.9290   -2.1580 N   0  0  0  0  0  0  0  0  0  0  0  0
   -2.8080   14.7990   -2.7370 C   0  0  2  0  0  0  0  0  0  0  0  0
   -0.5070   14.0860   -0.2100 N   0  0  0  0  0  0  0  0  0  0  0  0
   -2.1170   16.0470   -3.2820 C   0  0  0  0  0  0  0  0  0  0  0  0
   -2.2130   16.4340   -4.7670 C   0  0  0  0  0  0  0  0  0  0  0  0
   -1.3660   17.6720   -5.1150 C   0  0  0  0  0  0  0  0  0  0  0  0
   -1.7950   18.4850   -6.3370 C   0  0  0  0  0  0  0  0  0  0  0  0
   -0.5670   19.0180   -7.0980 C   0  0  0  0  0  0  0  0  0  0  0  0
   -0.7730   19.9290   -8.3100 C   0  0  0  0  0  0  0  0  0  0  0  0
   -1.2810   21.3570   -8.0920 C   0  0  0  0  0  0  0  0  0  0  0  0
   -2.6950   21.7870   -8.5310 C   0  0  2  0  0  0  0  0  0  0  0  0
   -3.1540   21.5330   -9.8650 O   0  0  0  0  0  0  0  0  0  0  0  0
   -2.8530   23.2950   -8.3740 C   0  0  1  0  0  0  0  0  0  0  0  0
   -1.6470   24.0100   -8.3370 O   0  0  0  0  0  0  0  0  0  0  0  0
   -4.2960   22.3810  -10.0200 C   0  0  1  0  0  0  0  0  0  0  0  0
   -3.9770   23.6900   -9.3720 C   0  0  2  0  0  0  0  0  0  0  0  0
   -4.6010   22.6610  -11.3710 O   0  0  0  0  0  0  0  0  0  0  0  0
   -3.7580   24.5800  -10.4800 O   0  0  0  0  0  0  0  0  0  0  0  0
  2  1  1  1
  2  3  1  0
  2  4  1  0
  3  5  1  0
  3  6  1  6
  4  7  1  0
  5  8  1  6
  6  9  1  0
  8  9  1  0
  5 10  1  0
  7 10  1  0
  9 11  1  1
 11 12  1  0
 12 13  1  0
 13 14  1  0
 14 15  1  0
 15 16  1  0
 16 17  1  0
 18 17  1  6
 18 19  1  0
 18 20  1  0
 20 21  1  6
 19 22  1  0
 20 23  1  0
 22 23  1  0
 22 24  1  6
 23 25  1  6
M  END
>  <%Rank>  (1156) 
88.167939

>  <N_hits>  (1156) 
2

>  <submitter_name>  (1156) 
nan

>  <original SMILES>  (1156) 
nan

>  <∆G_unbound>  (1156) 
2.610404

>  <∆G_bound>  (1156) 
-5.646701

>  <regarded>  (1156) 
5CMS_0_M_δ,mArh-5cms_H_7_H_α

>  <ref_pdb>  (1156) 
nan

>  <smiles>  (1156) 
NC1NCNC2NC(CCCCCCCC3OC(O)C(O)C3O)NC12

>  <submitter_email>  (1156) 
nan

>  <disregarded>  (1156) 


>  <LE>  (1156) 
-0.330284

>  <submitter_institution>  (1156) 
nan

>  <ref_mols>  (1156) 
5CMS_0_M,mArh-5cms_H_7_H

>  <N_constrained_atoms>  (1156) 
19.0

>  <ref_url>  (1156) 
nan

>  <method>  (1156) 
nan

>  <comRMSD>  (1156) 
2.056721

>  <N_unconstrained_atoms>  (1156) 
6.0

>  <∆∆G>  (1156) 
-8.257105

>  <runtime>  (1156) 
34.44538

>  <generation_date>  (1156) 
nan

$$$$
mArh-5cms_C_2_C_α-mArh-6mea_B_0_B_γ
     RDKit          3D

 24 25  0  0  0  0  0  0  0  0999 V2000
   -2.8660   21.2350   -7.3580 C   0  0  0  0  0  0  0  0  0  0  0  0
   -3.1780   22.5020   -8.1140 C   0  0  2  0  0  0  0  0  0  0  0  0
   -4.5270   22.5910   -8.5280 O   0  0  0  0  0  0  0  0  0  0  0  0
   -2.4390   22.7060   -9.4050 C   0  0  1  0  0  0  0  0  0  0  0  0
   -2.2790   21.4400   -9.9070 O   0  0  0  0  0  0  0  0  0  0  0  0
   -4.3210   23.8420   -9.0890 C   0  0  1  0  0  0  0  0  0  0  0  0
   -3.3860   23.5820  -10.1890 C   0  0  2  0  0  0  0  0  0  0  0  0
   -5.4250   24.5260   -9.5540 O   0  0  0  0  0  0  0  0  0  0  0  0
   -3.9860   22.9930  -11.3290 O   0  0  0  0  0  0  0  0  0  0  0  0
   -1.7100   20.7890   -8.7980 C   0  0  0  0  0  0  0  0  0  0  0  0
   -0.7170   21.6610   -8.0620 C   0  0  0  0  0  0  0  0  0  0  0  0
    0.5060   20.8250   -7.9990 C   0  0  0  0  0  0  0  0  0  0  0  0
    0.1600   19.3290   -8.0370 C   0  0  0  0  0  0  0  0  0  0  0  0
    0.4290   18.6260   -6.7340 C   0  0  0  0  0  0  0  0  0  0  0  0
   -0.8830   18.2520   -6.0610 C   0  0  0  0  0  0  0  0  0  0  0  0
   -0.6050   17.5460   -4.7590 C   0  0  0  0  0  0  0  0  0  0  0  0
    0.7630   16.8820   -4.8050 C   0  0  0  0  0  0  0  0  0  0  0  0
    0.8450   15.5040   -4.1460 C   0  0  1  0  0  0  0  0  0  0  0  0
    0.1490   15.5670   -2.8870 O   0  0  0  0  0  0  0  0  0  0  0  0
    0.2510   14.3390   -4.9510 C   0  0  1  0  0  0  0  0  0  0  0  0
    1.2600   13.4510   -5.4230 O   0  0  0  0  0  0  0  0  0  0  0  0
   -1.0150   14.7490   -2.9880 C   0  0  0  0  0  0  0  0  0  0  0  0
   -0.6790   13.6460   -3.9640 C   0  0  1  0  0  0  0  0  0  0  0  0
   -1.8120   13.0810   -4.5920 O   0  0  0  0  0  0  0  0  0  0  0  0
  2  1  1  6
  2  3  1  0
  2  4  1  0
  4  5  1  6
  3  6  1  0
  4  7  1  0
  6  7  1  0
  6  8  1  6
  7  9  1  6
  5 10  1  0
 10 11  1  0
 11 12  1  0
 12 13  1  0
 13 14  1  0
 14 15  1  0
 15 16  1  0
 16 17  1  0
 18 17  1  6
 18 19  1  0
 18 20  1  0
 20 21  1  1
 19 22  1  0
 20 23  1  0
 22 23  1  0
 23 24  1  6
M  END
>  <%Rank>  (1157) 
88.244275

>  <N_hits>  (1157) 
2

>  <submitter_name>  (1157) 
nan

>  <original SMILES>  (1157) 
nan

>  <∆G_unbound>  (1157) 
0.508415

>  <∆G_bound>  (1157) 
-4.521519

>  <regarded>  (1157) 
mArh-5cms_C_2_C_α,mArh-6mea_B_0_B_γ

>  <ref_pdb>  (1157) 
nan

>  <smiles>  (1157) 
CC1OC(O)C(O)C1OCCCCCCCCC1OCC(O)C1O

>  <submitter_email>  (1157) 
nan

>  <disregarded>  (1157) 


>  <LE>  (1157) 
-0.209581

>  <submitter_institution>  (1157) 
nan

>  <ref_mols>  (1157) 
mArh-5cms_C_2_C,mArh-6mea_B_0_B

>  <N_constrained_atoms>  (1157) 
17.0

>  <ref_url>  (1157) 
nan

>  <method>  (1157) 
nan

>  <comRMSD>  (1157) 
1.917275

>  <N_unconstrained_atoms>  (1157) 
7.0

>  <∆∆G>  (1157) 
-5.029933

>  <runtime>  (1157) 
39.363235

>  <generation_date>  (1157) 
nan

$$$$
5CMS_0_O_α-mArh-5cb5_A_0_A_β
     RDKit          3D

 19 19  0  0  0  0  0  0  0  0999 V2000
   -4.1800   22.2880  -12.6400 C   0  0  0  0  0  0  0  0  0  0  0  0
   -4.2110   22.5700  -11.1860 C   0  0  1  0  0  0  0  0  0  0  0  0
   -3.2670   21.7930  -10.4640 O   0  0  0  0  0  0  0  0  0  0  0  0
   -4.1440   24.0320  -10.6540 C   0  0  2  0  0  0  0  0  0  0  0  0
   -3.4800   25.0820  -11.4030 O   0  0  0  0  0  0  0  0  0  0  0  0
   -3.7700   22.2310   -9.2390 C   0  0  2  0  0  0  0  0  0  0  0  0
   -3.5410   23.7260   -9.3100 C   0  0  2  0  0  0  0  0  0  0  0  0
   -3.2290   21.6690   -8.0710 O   0  0  0  0  0  0  0  0  0  0  0  0
   -4.3680   24.3870   -8.4030 O   0  0  0  0  0  0  0  0  0  0  0  0
   -1.8250   21.5770   -8.0740 C   0  0  0  0  0  0  0  0  0  0  0  0
   -1.4780   20.2510   -8.3830 O   0  0  0  0  0  0  0  0  0  0  0  0
   -0.1010   19.7380   -7.8000 P   0  0  2  0  0  0  0  0  0  0  0  0
   -0.3390   18.9210   -6.4660 O   0  0  0  0  0  0  0  0  0  0  0  0
    0.9990   20.7430   -7.6560 O   0  0  0  0  0  0  0  0  0  0  0  0
    0.1660   18.5790   -8.8580 O   0  0  0  0  0  0  0  0  0  0  0  0
   -1.6980   18.2560   -6.0020 P   0  0  0  0  0  0  0  0  0  0  0  0
   -1.2840   16.8750   -5.3400 O   0  0  0  0  0  0  0  0  0  0  0  0
   -2.7390   18.1250   -7.0320 O   0  0  0  0  0  0  0  0  0  0  0  0
   -2.1770   19.1430   -4.7640 O   0  0  0  0  0  0  0  0  0  0  0  0
  2  1  1  6
  2  3  1  0
  2  4  1  0
  4  5  1  6
  3  6  1  0
  4  7  1  0
  6  7  1  0
  6  8  1  1
  7  9  1  1
  8 10  1  0
 10 11  1  0
 11 12  1  0
 12 13  1  0
 12 14  2  0
 12 15  1  6
 13 16  1  0
 16 17  1  0
 16 18  2  0
 16 19  1  0
M  END
>  <%Rank>  (1158) 
88.320611

>  <N_hits>  (1158) 
2

>  <submitter_name>  (1158) 
nan

>  <original SMILES>  (1158) 
nan

>  <∆G_unbound>  (1158) 
0.767522

>  <∆G_bound>  (1158) 
-7.075539

>  <regarded>  (1158) 
5CMS_0_O_α,mArh-5cb5_A_0_A_β

>  <ref_pdb>  (1158) 
nan

>  <smiles>  (1158) 
CC1OC(OCOP(=O)(O)OP(=O)(O)O)C(O)C1O

>  <submitter_email>  (1158) 
nan

>  <disregarded>  (1158) 


>  <LE>  (1158) 
-0.412793

>  <submitter_institution>  (1158) 
nan

>  <ref_mols>  (1158) 
5CMS_0_O,mArh-5cb5_A_0_A

>  <N_constrained_atoms>  (1158) 
18.0

>  <ref_url>  (1158) 
nan

>  <method>  (1158) 
nan

>  <comRMSD>  (1158) 
2.221676

>  <N_unconstrained_atoms>  (1158) 
1.0

>  <∆∆G>  (1158) 
-7.843061

>  <runtime>  (1158) 
37.241152

>  <generation_date>  (1158) 
nan

$$$$
5CMS_0_A_δ-5CMS_0_F_α
     RDKit          3D

 25 27  0  0  0  0  0  0  0  0999 V2000
   -4.3950   15.4700    1.5070 N   0  0  0  0  0  0  0  0  0  0  0  0
   -3.0910   15.5060    0.8640 C   0  0  2  0  0  0  0  0  0  0  0  0
   -3.0470   14.7500   -0.4710 C   0  0  2  0  0  0  0  0  0  0  0  0
   -2.1750   14.8540    1.7860 N   0  0  0  0  0  0  0  0  0  0  0  0
   -1.5960   14.7940   -0.8460 C   0  0  2  0  0  0  0  0  0  0  0  0
   -3.6470   15.3770   -1.6850 N   0  0  0  0  0  0  0  0  0  0  0  0
   -0.7780   14.7670    1.2900 C   0  0  0  0  0  0  0  0  0  0  0  0
   -1.6280   14.3860   -2.2180 N   0  0  0  0  0  0  0  0  0  0  0  0
   -2.4830   15.5030   -2.5820 C   0  0  1  0  0  0  0  0  0  0  0  0
   -0.7020   14.1250    0.0060 N   0  0  0  0  0  0  0  0  0  0  0  0
   -2.7610   15.6320   -4.0840 C   0  0  0  0  0  0  0  0  0  0  0  0
   -1.6830   16.5010   -4.7760 C   0  0  0  0  0  0  0  0  0  0  0  0
   -2.1130   17.4830   -5.8740 C   0  0  0  0  0  0  0  0  0  0  0  0
   -1.7450   18.9350   -5.5980 C   0  0  0  0  0  0  0  0  0  0  0  0
   -1.3840   19.6840   -6.8810 C   0  0  0  0  0  0  0  0  0  0  0  0
   -2.3310   20.8250   -7.2390 C   0  0  0  0  0  0  0  0  0  0  0  0
   -2.1830   21.4400   -8.6260 C   0  0  0  0  0  0  0  0  0  0  0  0
   -3.4520   22.1500   -9.1200 C   0  0  2  0  0  0  0  0  0  0  0  0
   -3.7650   21.9450  -10.4890 O   0  0  0  0  0  0  0  0  0  0  0  0
   -3.4250   23.6650   -8.9670 C   0  0  1  0  0  0  0  0  0  0  0  0
   -2.1530   24.1670   -8.6140 O   0  0  0  0  0  0  0  0  0  0  0  0
   -4.6890   22.9490  -10.8670 C   0  0  2  0  0  0  0  0  0  0  0  0
   -4.2450   24.2210  -10.2080 C   0  0  2  0  0  0  0  0  0  0  0  0
   -5.9510   22.6640  -10.3460 O   0  0  0  0  0  0  0  0  0  0  0  0
   -3.6230   25.1120  -11.2020 O   0  0  0  0  0  0  0  0  0  0  0  0
  2  1  1  1
  2  3  1  0
  2  4  1  0
  3  5  1  0
  3  6  1  6
  4  7  1  0
  5  8  1  6
  6  9  1  0
  8  9  1  0
  5 10  1  0
  7 10  1  0
  9 11  1  6
 11 12  1  0
 12 13  1  0
 13 14  1  0
 14 15  1  0
 15 16  1  0
 16 17  1  0
 18 17  1  6
 18 19  1  0
 18 20  1  0
 20 21  1  6
 19 22  1  0
 20 23  1  0
 22 23  1  0
 22 24  1  1
 23 25  1  6
M  END
>  <%Rank>  (1159) 
88.396947

>  <N_hits>  (1159) 
2

>  <submitter_name>  (1159) 
nan

>  <original SMILES>  (1159) 
nan

>  <∆G_unbound>  (1159) 
2.610404

>  <∆G_bound>  (1159) 
-3.639207

>  <regarded>  (1159) 
5CMS_0_A_δ,5CMS_0_F_α

>  <ref_pdb>  (1159) 
nan

>  <smiles>  (1159) 
NC1NCNC2NC(CCCCCCCC3OC(O)C(O)C3O)NC12

>  <submitter_email>  (1159) 
nan

>  <disregarded>  (1159) 


>  <LE>  (1159) 
-0.249984

>  <submitter_institution>  (1159) 
nan

>  <ref_mols>  (1159) 
5CMS_0_A,5CMS_0_F

>  <N_constrained_atoms>  (1159) 
19.0

>  <ref_url>  (1159) 
nan

>  <method>  (1159) 
nan

>  <comRMSD>  (1159) 
2.036748

>  <N_unconstrained_atoms>  (1159) 
6.0

>  <∆∆G>  (1159) 
-6.249611

>  <runtime>  (1159) 
38.98983

>  <generation_date>  (1159) 
nan

$$$$
5CMS_0_R_β-5MQX_0_A_β
     RDKit          3D

 17 16  0  0  0  0  0  0  0  0999 V2000
   -1.0140   20.7360   -7.5780 O   0  0  0  0  0  0  0  0  0  0  0  0
    0.1590   19.5590   -7.5530 P   0  0  0  0  0  0  0  0  0  0  0  0
    0.8310   18.9090   -6.2320 O   0  0  0  0  0  0  0  0  0  0  0  0
    1.1870   20.6690   -7.6680 O   0  0  0  0  0  0  0  0  0  0  0  0
    0.3900   18.7740   -8.9610 O   0  0  0  0  0  0  0  0  0  0  0  0
   -0.3060   18.4270   -5.4150 P   0  0  0  0  0  0  0  0  0  0  0  0
    0.5130   17.4470   -4.3800 O   0  0  0  0  0  0  0  0  0  0  0  0
   -0.8620   17.7970   -6.8180 O   0  0  0  0  0  0  0  0  0  0  0  0
   -1.7120   18.2520   -4.8580 N   0  0  0  0  0  0  0  0  0  0  0  0
   -2.3150   19.7630   -5.3900 P   0  0  0  0  0  0  0  0  0  0  0  0
   -2.3360   16.6720   -5.3630 P   0  0  0  0  0  0  0  0  0  0  0  0
   -1.3770   20.7940   -6.2840 O   0  0  0  0  0  0  0  0  0  0  0  0
   -2.9350   19.3870   -6.7120 O   0  0  0  0  0  0  0  0  0  0  0  0
   -3.6690   20.5940   -4.8670 O   0  0  0  0  0  0  0  0  0  0  0  0
   -1.3440   15.3820   -5.0470 O   0  0  0  0  0  0  0  0  0  0  0  0
   -2.9640   16.4470   -3.9920 O   0  0  0  0  0  0  0  0  0  0  0  0
   -3.6860   16.4380   -6.1690 O   0  0  0  0  0  0  0  0  0  0  0  0
  1  2  1  0
  2  3  1  0
  2  4  1  0
  2  5  1  0
  3  6  1  0
  6  7  1  0
  6  8  1  0
  6  9  1  0
  9 10  1  0
  9 11  1  0
 10 12  1  0
 10 13  1  0
 10 14  1  0
 11 15  1  0
 11 16  1  0
 11 17  1  0
M  CHG  4   4  -1   8  -1  13  -1  16  -1
M  END
>  <%Rank>  (1160) 
88.473282

>  <N_hits>  (1160) 
2

>  <submitter_name>  (1160) 
nan

>  <original SMILES>  (1160) 
nan

>  <∆G_unbound>  (1160) 
1.653792

>  <∆G_bound>  (1160) 
2.859254

>  <regarded>  (1160) 
5CMS_0_R_β,5MQX_0_A_β

>  <ref_pdb>  (1160) 
nan

>  <smiles>  (1160) 
[O-][PH](O)(O)O[PH]([O-])(O)N([PH]([O-])(O)O)[PH]([O-])(O)O

>  <submitter_email>  (1160) 
nan

>  <disregarded>  (1160) 


>  <LE>  (1160) 
0.070909

>  <submitter_institution>  (1160) 
nan

>  <ref_mols>  (1160) 
5CMS_0_R,5MQX_0_A

>  <N_constrained_atoms>  (1160) 
17.0

>  <ref_url>  (1160) 
nan

>  <method>  (1160) 
nan

>  <comRMSD>  (1160) 
2.00015

>  <N_unconstrained_atoms>  (1160) 
0.0

>  <∆∆G>  (1160) 
1.205461

>  <runtime>  (1160) 
99.230294

>  <generation_date>  (1160) 
nan

$$$$
6MEA_0_B_α-5CB5_0_F_δ
     RDKit          3D

 24 26  0  0  0  0  0  0  0  0999 V2000
   -2.2180   21.4430   -8.7360 C   0  0  0  0  0  0  0  0  0  0  0  0
   -3.1340   22.0130   -7.7110 C   0  0  2  0  0  0  0  0  0  0  0  0
   -4.0550   21.0530   -7.3010 O   0  0  0  0  0  0  0  0  0  0  0  0
   -4.1800   23.0330   -7.9890 C   0  0  2  0  0  0  0  0  0  0  0  0
   -3.8080   24.1590   -8.7380 O   0  0  0  0  0  0  0  0  0  0  0  0
   -4.5750   21.6510   -6.1320 C   0  0  2  0  0  0  0  0  0  0  0  0
   -4.3950   23.1860   -6.4800 C   0  0  2  0  0  0  0  0  0  0  0  0
   -3.6970   21.0220   -5.1570 O   0  0  0  0  0  0  0  0  0  0  0  0
   -5.5360   24.0520   -6.2880 O   0  0  0  0  0  0  0  0  0  0  0  0
   -2.6590   20.2440   -5.8860 C   0  0  0  0  0  0  0  0  0  0  0  0
   -1.7970   19.0880   -5.2610 C   0  0  0  0  0  0  0  0  0  0  0  0
   -2.0300   17.6320   -5.7670 C   0  0  0  0  0  0  0  0  0  0  0  0
   -1.5610   16.5240   -4.7680 C   0  0  0  0  0  0  0  0  0  0  0  0
   -2.5110   16.1560   -3.5960 C   0  0  0  0  0  0  0  0  0  0  0  0
   -2.4130   14.8840   -2.7140 C   0  0  1  0  0  0  0  0  0  0  0  0
   -1.0450   14.5490   -2.3960 N   0  0  0  0  0  0  0  0  0  0  0  0
   -3.1560   15.0180   -1.4370 N   0  0  0  0  0  0  0  0  0  0  0  0
   -0.9760   14.1200   -1.0190 C   0  0  2  0  0  0  0  0  0  0  0  0
   -2.3620   14.3210   -0.3890 C   0  0  1  0  0  0  0  0  0  0  0  0
    0.2000   14.7140   -0.4280 N   0  0  0  0  0  0  0  0  0  0  0  0
   -2.2440   15.1090    0.9320 C   0  0  1  0  0  0  0  0  0  0  0  0
   -3.3040   14.8760    1.8840 N   0  0  0  0  0  0  0  0  0  0  0  0
   -0.0160   15.4250    0.7950 C   0  0  0  0  0  0  0  0  0  0  0  0
   -1.0180   14.7600    1.5640 N   0  0  0  0  0  0  0  0  0  0  0  0
  2  1  1  6
  2  3  1  0
  2  4  1  0
  4  5  1  1
  3  6  1  0
  4  7  1  0
  6  7  1  0
  6  8  1  1
  7  9  1  6
  8 10  1  0
 10 11  1  0
 11 12  1  0
 12 13  1  0
 13 14  1  0
 15 14  1  1
 15 16  1  0
 15 17  1  0
 18 16  1  6
 19 17  1  6
 18 19  1  0
 18 20  1  0
 19 21  1  0
 21 22  1  1
 20 23  1  0
 21 24  1  0
 23 24  1  0
M  END
>  <%Rank>  (1161) 
88.549618

>  <N_hits>  (1161) 
2

>  <submitter_name>  (1161) 
nan

>  <original SMILES>  (1161) 
nan

>  <∆G_unbound>  (1161) 
0.639202

>  <∆G_bound>  (1161) 
-8.190293

>  <regarded>  (1161) 
6MEA_0_B_α,5CB5_0_F_δ

>  <ref_pdb>  (1161) 
nan

>  <smiles>  (1161) 
CC1OC(OCCCCCC2NC3NCNC(N)C3N2)C(O)C1O

>  <submitter_email>  (1161) 
nan

>  <disregarded>  (1161) 


>  <LE>  (1161) 
-0.367896

>  <submitter_institution>  (1161) 
nan

>  <ref_mols>  (1161) 
6MEA_0_B,5CB5_0_F

>  <N_constrained_atoms>  (1161) 
19.0

>  <ref_url>  (1161) 
nan

>  <method>  (1161) 
nan

>  <comRMSD>  (1161) 
2.160419

>  <N_unconstrained_atoms>  (1161) 
5.0

>  <∆∆G>  (1161) 
-8.829495

>  <runtime>  (1161) 
42.557844

>  <generation_date>  (1161) 
nan

$$$$
6WOJ_0_B_δ-5CMS_0_P_α
     RDKit          3D

 25 27  0  0  0  0  0  0  0  0999 V2000
   -4.0520   15.2420    1.4630 N   0  0  0  0  0  0  0  0  0  0  0  0
   -2.9490   14.5430    0.8260 C   0  0  1  0  0  0  0  0  0  0  0  0
   -2.5730   15.1420   -0.5190 C   0  0  1  0  0  0  0  0  0  0  0  0
   -1.8230   14.7390    1.7160 N   0  0  0  0  0  0  0  0  0  0  0  0
   -1.4110   14.3300   -0.9860 C   0  0  1  0  0  0  0  0  0  0  0  0
   -3.4490   14.9570   -1.6790 N   0  0  0  0  0  0  0  0  0  0  0  0
   -0.5260   14.2050    1.2350 C   0  0  0  0  0  0  0  0  0  0  0  0
   -1.2400   14.7060   -2.3880 N   0  0  0  0  0  0  0  0  0  0  0  0
   -2.5040   15.4040   -2.7050 C   0  0  1  0  0  0  0  0  0  0  0  0
   -0.2540   14.4530   -0.1740 N   0  0  0  0  0  0  0  0  0  0  0  0
   -3.0380   15.1860   -4.1240 C   0  0  0  0  0  0  0  0  0  0  0  0
   -2.2070   15.8080   -5.2760 C   0  0  0  0  0  0  0  0  0  0  0  0
   -1.5080   17.1720   -5.0880 C   0  0  0  0  0  0  0  0  0  0  0  0
   -2.0770   18.2770   -5.9960 C   0  0  0  0  0  0  0  0  0  0  0  0
   -1.0770   19.0500   -6.8700 C   0  0  0  0  0  0  0  0  0  0  0  0
   -1.4710   20.5180   -7.1060 C   0  0  0  0  0  0  0  0  0  0  0  0
   -1.6080   21.0450   -8.5390 C   0  0  0  0  0  0  0  0  0  0  0  0
   -2.9310   21.7730   -8.8180 C   0  0  2  0  0  0  0  0  0  0  0  0
   -3.4510   21.6040  -10.1410 O   0  0  0  0  0  0  0  0  0  0  0  0
   -2.9170   23.2910   -8.6140 C   0  0  2  0  0  0  0  0  0  0  0  0
   -2.9860   23.7460   -7.3040 O   0  0  0  0  0  0  0  0  0  0  0  0
   -4.5000   22.5450  -10.2730 C   0  0  1  0  0  0  0  0  0  0  0  0
   -4.0650   23.7910   -9.5610 C   0  0  2  0  0  0  0  0  0  0  0  0
   -4.7400   22.9040  -11.6190 O   0  0  0  0  0  0  0  0  0  0  0  0
   -3.7960   24.7060  -10.6570 O   0  0  0  0  0  0  0  0  0  0  0  0
  2  1  1  1
  2  3  1  0
  2  4  1  0
  3  5  1  0
  3  6  1  6
  4  7  1  0
  5  8  1  6
  6  9  1  0
  8  9  1  0
  5 10  1  0
  7 10  1  0
  9 11  1  6
 11 12  1  0
 12 13  1  0
 13 14  1  0
 14 15  1  0
 15 16  1  0
 16 17  1  0
 18 17  1  6
 18 19  1  0
 18 20  1  0
 20 21  1  1
 19 22  1  0
 20 23  1  0
 22 23  1  0
 22 24  1  6
 23 25  1  6
M  END
>  <%Rank>  (1162) 
88.625954

>  <N_hits>  (1162) 
2

>  <submitter_name>  (1162) 
nan

>  <original SMILES>  (1162) 
nan

>  <∆G_unbound>  (1162) 
2.610404

>  <∆G_bound>  (1162) 
-5.373734

>  <regarded>  (1162) 
6WOJ_0_B_δ,5CMS_0_P_α

>  <ref_pdb>  (1162) 
nan

>  <smiles>  (1162) 
NC1NCNC2NC(CCCCCCCC3OC(O)C(O)C3O)NC12

>  <submitter_email>  (1162) 
nan

>  <disregarded>  (1162) 


>  <LE>  (1162) 
-0.319366

>  <submitter_institution>  (1162) 
nan

>  <ref_mols>  (1162) 
6WOJ_0_B,5CMS_0_P

>  <N_constrained_atoms>  (1162) 
19.0

>  <ref_url>  (1162) 
nan

>  <method>  (1162) 
nan

>  <comRMSD>  (1162) 
2.176904

>  <N_unconstrained_atoms>  (1162) 
6.0

>  <∆∆G>  (1162) 
-7.984138

>  <runtime>  (1162) 
35.393916

>  <generation_date>  (1162) 
nan

$$$$
5CB3_0_A_δ-mArh-5cms_B_1_B_α
     RDKit          3D

 25 27  0  0  0  0  0  0  0  0999 V2000
   -4.2200   15.4120    1.5900 N   0  0  0  0  0  0  0  0  0  0  0  0
   -2.9300   15.4850    0.9150 C   0  0  2  0  0  0  0  0  0  0  0  0
   -2.9060   14.8140   -0.4580 C   0  0  2  0  0  0  0  0  0  0  0  0
   -1.9700   14.8040    1.7600 N   0  0  0  0  0  0  0  0  0  0  0  0
   -1.4770   14.9420   -0.8910 C   0  0  2  0  0  0  0  0  0  0  0  0
   -3.5730   15.4840   -1.6080 N   0  0  0  0  0  0  0  0  0  0  0  0
   -0.5910   14.8390    1.2210 C   0  0  0  0  0  0  0  0  0  0  0  0
   -1.5450   14.5440   -2.2620 N   0  0  0  0  0  0  0  0  0  0  0  0
   -2.5120   15.5660   -2.6440 C   0  0  1  0  0  0  0  0  0  0  0  0
   -0.5240   14.2790   -0.0970 N   0  0  0  0  0  0  0  0  0  0  0  0
   -3.0030   15.4300   -4.0940 C   0  0  0  0  0  0  0  0  0  0  0  0
   -2.1480   16.1640   -5.1700 C   0  0  0  0  0  0  0  0  0  0  0  0
   -1.6210   17.5890   -4.8840 C   0  0  0  0  0  0  0  0  0  0  0  0
   -0.7520   18.2090   -5.9830 C   0  0  0  0  0  0  0  0  0  0  0  0
   -1.5800   18.7990   -7.1340 C   0  0  0  0  0  0  0  0  0  0  0  0
   -2.0390   20.2630   -7.0670 C   0  0  0  0  0  0  0  0  0  0  0  0
   -1.8550   21.0820   -8.3620 C   0  0  0  0  0  0  0  0  0  0  0  0
   -2.8580   22.2100   -8.6720 C   0  0  2  0  0  0  0  0  0  0  0  0
   -3.8560   22.5410   -7.7450 O   0  0  0  0  0  0  0  0  0  0  0  0
   -3.8450   22.2030   -9.8180 C   0  0  1  0  0  0  0  0  0  0  0  0
   -5.1140   21.7370   -9.5630 O   0  0  0  0  0  0  0  0  0  0  0  0
   -4.2410   23.7870   -8.3250 C   0  0  2  0  0  0  0  0  0  0  0  0
   -3.9930   23.6900   -9.8280 C   0  0  2  0  0  0  0  0  0  0  0  0
   -3.2750   24.6650   -7.8100 O   0  0  0  0  0  0  0  0  0  0  0  0
   -4.9570   24.1450  -10.7910 O   0  0  0  0  0  0  0  0  0  0  0  0
  2  1  1  1
  2  3  1  0
  2  4  1  0
  3  5  1  0
  3  6  1  6
  4  7  1  0
  5  8  1  6
  6  9  1  0
  8  9  1  0
  5 10  1  0
  7 10  1  0
  9 11  1  6
 11 12  1  0
 12 13  1  0
 13 14  1  0
 14 15  1  0
 15 16  1  0
 16 17  1  0
 18 17  1  1
 18 19  1  0
 18 20  1  0
 20 21  1  1
 19 22  1  0
 20 23  1  0
 22 23  1  0
 22 24  1  1
 23 25  1  6
M  END
>  <%Rank>  (1163) 
88.70229

>  <N_hits>  (1163) 
2

>  <submitter_name>  (1163) 
nan

>  <original SMILES>  (1163) 
nan

>  <∆G_unbound>  (1163) 
2.610404

>  <∆G_bound>  (1163) 
-4.274519

>  <regarded>  (1163) 
5CB3_0_A_δ,mArh-5cms_B_1_B_α

>  <ref_pdb>  (1163) 
nan

>  <smiles>  (1163) 
NC1NCNC2NC(CCCCCCCC3OC(O)C(O)C3O)NC12

>  <submitter_email>  (1163) 
nan

>  <disregarded>  (1163) 


>  <LE>  (1163) 
-0.275397

>  <submitter_institution>  (1163) 
nan

>  <ref_mols>  (1163) 
5CB3_0_A,mArh-5cms_B_1_B

>  <N_constrained_atoms>  (1163) 
19.0

>  <ref_url>  (1163) 
nan

>  <method>  (1163) 
nan

>  <comRMSD>  (1163) 
2.230057

>  <N_unconstrained_atoms>  (1163) 
6.0

>  <∆∆G>  (1163) 
-6.884923

>  <runtime>  (1163) 
39.144757

>  <generation_date>  (1163) 
nan

$$$$
mArh-4jca_0_A_α-mArh-5cms_C_2_C_γ
     RDKit          3D

 22 22  0  0  0  0  0  0  0  0999 V2000
   -0.0650    9.9900   -3.0450 C   0  0  0  0  0  0  0  0  0  0  0  0
    0.4070    9.8740   -4.4490 C   0  0  0  0  0  0  0  0  0  0  0  0
    1.0740   11.1830   -4.7460 C   0  0  0  0  0  0  0  0  0  0  0  0
    0.6360    9.9640   -2.0660 O   0  0  0  0  0  0  0  0  0  0  0  0
   -1.3920   10.1270   -2.9000 O   0  0  0  0  0  0  0  0  0  0  0  0
    1.0120   11.5800   -6.2220 C   0  0  0  0  0  0  0  0  0  0  0  0
    0.2750   12.0430   -3.7920 C   0  0  0  0  0  0  0  0  0  0  0  0
    2.4380   11.2640   -4.2960 O   0  0  0  0  0  0  0  0  0  0  0  0
    1.1000   10.4040   -7.1710 C   0  0  0  0  0  0  0  0  0  0  0  0
   -1.0040   12.0070   -3.8410 N   0  0  0  0  0  0  0  0  0  0  0  0
    1.0190   12.7640   -2.9240 O   0  0  0  0  0  0  0  0  0  0  0  0
    0.9560    9.2420   -6.8210 O   0  0  0  0  0  0  0  0  0  0  0  0
    1.3400   10.7340   -8.4580 O   0  0  0  0  0  0  0  0  0  0  0  0
   -1.7650   12.8100   -2.9130 C   0  0  0  0  0  0  0  0  0  0  0  0
   -2.4010   13.8750   -3.5920 O   0  0  0  0  0  0  0  0  0  0  0  0
   -1.6060   15.0650   -3.6810 C   0  0  1  0  0  0  0  0  0  0  0  0
   -0.4540   14.9870   -2.6900 C   0  0  0  0  0  0  0  0  0  0  0  0
   -0.8120   15.1730   -4.9830 C   0  0  2  0  0  0  0  0  0  0  0  0
   -0.5950   13.9570   -5.6710 O   0  0  0  0  0  0  0  0  0  0  0  0
    0.5010   15.9570   -3.1410 O   0  0  0  0  0  0  0  0  0  0  0  0
    0.4990   15.8660   -4.5770 C   0  0  2  0  0  0  0  0  0  0  0  0
    0.6510   17.2550   -5.1760 C   0  0  0  0  0  0  0  0  0  0  0  0
  1  2  1  0
  2  3  1  0
  1  4  2  0
  1  5  1  0
  3  6  1  0
  3  7  1  0
  3  8  1  0
  6  9  1  0
  7 10  2  3
  7 11  1  0
  9 12  2  0
  9 13  1  0
 10 14  1  0
 14 15  1  0
 16 15  1  6
 16 17  1  0
 16 18  1  0
 18 19  1  1
 17 20  1  0
 18 21  1  0
 20 21  1  0
 21 22  1  6
M  END
>  <%Rank>  (1164) 
88.778626

>  <N_hits>  (1164) 
2

>  <submitter_name>  (1164) 
nan

>  <original SMILES>  (1164) 
nan

>  <∆G_unbound>  (1164) 
3.213512

>  <∆G_bound>  (1164) 
2.415037

>  <regarded>  (1164) 
mArh-4jca_0_A_α,mArh-5cms_C_2_C_γ

>  <ref_pdb>  (1164) 
nan

>  <smiles>  (1164) 
CC1OCC(OCN=C(O)C(O)(CC(=O)O)CC(=O)O)C1O

>  <submitter_email>  (1164) 
nan

>  <disregarded>  (1164) 


>  <LE>  (1164) 
-0.036294

>  <submitter_institution>  (1164) 
nan

>  <ref_mols>  (1164) 
mArh-4jca_0_A,mArh-5cms_C_2_C

>  <N_constrained_atoms>  (1164) 
21.0

>  <ref_url>  (1164) 
nan

>  <method>  (1164) 
nan

>  <comRMSD>  (1164) 
2.334341

>  <N_unconstrained_atoms>  (1164) 
1.0

>  <∆∆G>  (1164) 
-0.798475

>  <runtime>  (1164) 
62.91349

>  <generation_date>  (1164) 
nan

$$$$
mArh-2fav_B_0_B_δ-6WOJ_0_D_α
     RDKit          3D

 24 26  0  0  0  0  0  0  0  0999 V2000
   -3.8940   15.5420    1.2720 N   0  0  0  0  0  0  0  0  0  0  0  0
   -2.9920   14.7070    0.5040 C   0  0  1  0  0  0  0  0  0  0  0  0
   -2.2300   15.3100   -0.7040 C   0  0  1  0  0  0  0  0  0  0  0  0
   -2.0210   14.2490    1.4890 N   0  0  0  0  0  0  0  0  0  0  0  0
   -1.5390   14.0520   -1.1560 C   0  0  1  0  0  0  0  0  0  0  0  0
   -2.8230   15.8170   -1.9630 N   0  0  0  0  0  0  0  0  0  0  0  0
   -0.6180   14.3250    1.0560 C   0  0  0  0  0  0  0  0  0  0  0  0
   -1.2540   14.2000   -2.5780 N   0  0  0  0  0  0  0  0  0  0  0  0
   -1.8040   15.4870   -3.0080 C   0  0  2  0  0  0  0  0  0  0  0  0
   -0.3890   13.8310   -0.3170 N   0  0  0  0  0  0  0  0  0  0  0  0
   -0.6110   16.4890   -3.1900 C   0  0  0  0  0  0  0  0  0  0  0  0
   -0.5420   17.6450   -4.2650 C   0  0  0  0  0  0  0  0  0  0  0  0
   -1.6640   17.8290   -5.3120 C   0  0  0  0  0  0  0  0  0  0  0  0
   -1.6420   19.2370   -6.0100 C   0  0  0  0  0  0  0  0  0  0  0  0
   -2.9060   20.0750   -5.7300 C   0  0  0  0  0  0  0  0  0  0  0  0
   -2.9020   21.4740   -5.9010 O   0  0  0  0  0  0  0  0  0  0  0  0
   -4.1080   21.9140   -6.4990 C   0  0  2  0  0  0  0  0  0  0  0  0
   -4.1010   21.3750   -7.8030 O   0  0  0  0  0  0  0  0  0  0  0  0
   -4.0540   23.4410   -6.6550 C   0  0  2  0  0  0  0  0  0  0  0  0
   -5.3580   24.0740   -6.6120 O   0  0  0  0  0  0  0  0  0  0  0  0
   -3.1050   22.1480   -8.4470 C   0  0  1  0  0  0  0  0  0  0  0  0
   -3.4610   23.5820   -8.0680 C   0  0  1  0  0  0  0  0  0  0  0  0
   -1.7050   21.7340   -8.0150 C   0  0  0  0  0  0  0  0  0  0  0  0
   -4.3990   24.1190   -8.9920 O   0  0  0  0  0  0  0  0  0  0  0  0
  2  1  1  1
  2  3  1  0
  2  4  1  0
  3  5  1  0
  3  6  1  6
  4  7  1  0
  5  8  1  6
  6  9  1  0
  8  9  1  0
  5 10  1  0
  7 10  1  0
  9 11  1  1
 11 12  1  0
 12 13  1  0
 13 14  1  0
 14 15  1  0
 15 16  1  0
 17 16  1  1
 17 18  1  0
 17 19  1  0
 19 20  1  6
 18 21  1  0
 19 22  1  0
 21 22  1  0
 21 23  1  1
 22 24  1  6
M  END
>  <%Rank>  (1165) 
88.854962

>  <N_hits>  (1165) 
2

>  <submitter_name>  (1165) 
nan

>  <original SMILES>  (1165) 
nan

>  <∆G_unbound>  (1165) 
0.335171

>  <∆G_bound>  (1165) 
-9.553931

>  <regarded>  (1165) 
mArh-2fav_B_0_B_δ,6WOJ_0_D_α

>  <ref_pdb>  (1165) 
nan

>  <smiles>  (1165) 
CC1OC(OCCCCCC2NC3NCNC(N)C3N2)C(O)C1O

>  <submitter_email>  (1165) 
nan

>  <disregarded>  (1165) 


>  <LE>  (1165) 
-0.412046

>  <submitter_institution>  (1165) 
nan

>  <ref_mols>  (1165) 
mArh-2fav_B_0_B,6WOJ_0_D

>  <N_constrained_atoms>  (1165) 
19.0

>  <ref_url>  (1165) 
nan

>  <method>  (1165) 
nan

>  <comRMSD>  (1165) 
2.380456

>  <N_unconstrained_atoms>  (1165) 
5.0

>  <∆∆G>  (1165) 
-9.889103

>  <runtime>  (1165) 
60.053173

>  <generation_date>  (1165) 
nan

$$$$
mArh-5lw0_B_1_B_α-6MEA_0_A_δ
     RDKit          3D

 24 26  0  0  0  0  0  0  0  0999 V2000
   -2.9360   21.9170   -7.5540 C   0  0  0  0  0  0  0  0  0  0  0  0
   -4.3870   21.5200   -7.2360 C   0  0  2  0  0  0  0  0  0  0  0  0
   -4.5690   20.0840   -7.3200 O   0  0  0  0  0  0  0  0  0  0  0  0
   -5.4570   22.2020   -8.1230 C   0  0  1  0  0  0  0  0  0  0  0  0
   -4.9370   22.8570   -9.2760 O   0  0  0  0  0  0  0  0  0  0  0  0
   -5.9250   19.8880   -7.6900 C   0  0  1  0  0  0  0  0  0  0  0  0
   -6.2970   21.0640   -8.6280 C   0  0  1  0  0  0  0  0  0  0  0  0
   -6.2880   18.4750   -8.0540 O   0  0  0  0  0  0  0  0  0  0  0  0
   -7.6900   21.3400   -8.5900 O   0  0  0  0  0  0  0  0  0  0  0  0
   -5.7250   17.2840   -7.2870 C   0  0  0  0  0  0  0  0  0  0  0  0
   -5.2210   15.8730   -7.7420 C   0  0  0  0  0  0  0  0  0  0  0  0
   -4.0610   15.2260   -6.8450 C   0  0  0  0  0  0  0  0  0  0  0  0
   -4.2120   15.2350   -5.2710 C   0  0  0  0  0  0  0  0  0  0  0  0
   -3.4140   14.2890   -4.2800 C   0  0  0  0  0  0  0  0  0  0  0  0
   -3.0130   14.7870   -2.8060 C   0  0  2  0  0  0  0  0  0  0  0  0
   -1.5770   14.6390   -2.4840 N   0  0  0  0  0  0  0  0  0  0  0  0
   -3.7080   14.2030   -1.6050 N   0  0  0  0  0  0  0  0  0  0  0  0
   -1.5090   14.2330   -1.0880 C   0  0  2  0  0  0  0  0  0  0  0  0
   -2.8180   14.7160   -0.5280 C   0  0  2  0  0  0  0  0  0  0  0  0
   -0.3140   14.6230   -0.3960 N   0  0  0  0  0  0  0  0  0  0  0  0
   -2.9190   14.2600    0.9450 C   0  0  2  0  0  0  0  0  0  0  0  0
   -3.7000   15.1910    1.7280 N   0  0  0  0  0  0  0  0  0  0  0  0
   -0.5520   14.9710    0.9880 C   0  0  0  0  0  0  0  0  0  0  0  0
   -1.6070   14.1730    1.5900 N   0  0  0  0  0  0  0  0  0  0  0  0
  2  1  1  6
  2  3  1  0
  2  4  1  0
  4  5  1  6
  3  6  1  0
  4  7  1  0
  6  7  1  0
  6  8  1  6
  7  9  1  1
  8 10  1  0
 10 11  1  0
 11 12  1  0
 12 13  1  0
 13 14  1  0
 15 14  1  6
 15 16  1  0
 15 17  1  0
 18 16  1  6
 19 17  1  6
 18 19  1  0
 18 20  1  0
 19 21  1  0
 21 22  1  1
 20 23  1  0
 21 24  1  0
 23 24  1  0
M  END
>  <%Rank>  (1166) 
88.931298

>  <N_hits>  (1166) 
2

>  <submitter_name>  (1166) 
nan

>  <original SMILES>  (1166) 
nan

>  <∆G_unbound>  (1166) 
0.639202

>  <∆G_bound>  (1166) 
-0.810223

>  <regarded>  (1166) 
mArh-5lw0_B_1_B_α,6MEA_0_A_δ

>  <ref_pdb>  (1166) 
nan

>  <smiles>  (1166) 
CC1OC(OCCCCCC2NC3NCNC(N)C3N2)C(O)C1O

>  <submitter_email>  (1166) 
nan

>  <disregarded>  (1166) 


>  <LE>  (1166) 
-0.060393

>  <submitter_institution>  (1166) 
nan

>  <ref_mols>  (1166) 
mArh-5lw0_B_1_B,6MEA_0_A

>  <N_constrained_atoms>  (1166) 
19.0

>  <ref_url>  (1166) 
nan

>  <method>  (1166) 
nan

>  <comRMSD>  (1166) 
2.223209

>  <N_unconstrained_atoms>  (1166) 
5.0

>  <∆∆G>  (1166) 
-1.449425

>  <runtime>  (1166) 
32.129207

>  <generation_date>  (1166) 
nan

$$$$
5LW0_1_B_δ-mArh-5cms_A_0_A_α
     RDKit          3D

 26 28  0  0  0  0  0  0  0  0999 V2000
   -4.1220   15.5370    1.8460 N   0  0  0  0  0  0  0  0  0  0  0  0
   -3.1240   14.7800    1.0950 C   0  0  1  0  0  0  0  0  0  0  0  0
   -2.9770   15.2160   -0.3730 C   0  0  1  0  0  0  0  0  0  0  0  0
   -1.9220   15.0700    1.8190 N   0  0  0  0  0  0  0  0  0  0  0  0
   -1.5290   14.9090   -0.7750 C   0  0  2  0  0  0  0  0  0  0  0  0
   -3.8110   14.5520   -1.4040 N   0  0  0  0  0  0  0  0  0  0  0  0
   -0.7350   14.3370    1.4260 C   0  0  0  0  0  0  0  0  0  0  0  0
   -1.6250   14.3250   -2.0940 N   0  0  0  0  0  0  0  0  0  0  0  0
   -2.9480   14.5790   -2.5880 C   0  0  2  0  0  0  0  0  0  0  0  0
   -0.8450   13.9540    0.0520 N   0  0  0  0  0  0  0  0  0  0  0  0
   -3.0100   15.9360   -3.3010 C   0  0  0  0  0  0  0  0  0  0  0  0
   -2.6230   16.0790   -4.8020 C   0  0  0  0  0  0  0  0  0  0  0  0
   -1.4730   17.0840   -5.0860 C   0  0  0  0  0  0  0  0  0  0  0  0
   -1.7050   18.6110   -5.3070 C   0  0  0  0  0  0  0  0  0  0  0  0
   -2.6860   19.1880   -6.3810 C   0  0  0  0  0  0  0  0  0  0  0  0
   -3.2380   20.6000   -6.0350 C   0  0  0  0  0  0  0  0  0  0  0  0
   -3.6070   21.5490   -7.2060 C   0  0  0  0  0  0  0  0  0  0  0  0
   -2.5990   21.7330   -8.3470 C   0  0  0  0  0  0  0  0  0  0  0  0
   -2.9270   22.7000   -9.4690 C   0  0  2  0  0  0  0  0  0  0  0  0
   -3.9240   22.2190  -10.3520 O   0  0  0  0  0  0  0  0  0  0  0  0
   -1.9040   23.3090  -10.4300 C   0  0  1  0  0  0  0  0  0  0  0  0
   -1.2980   22.3800  -11.3320 O   0  0  0  0  0  0  0  0  0  0  0  0
   -4.2540   23.4810  -10.8930 C   0  0  2  0  0  0  0  0  0  0  0  0
   -2.8680   23.9870  -11.3640 C   0  0  1  0  0  0  0  0  0  0  0  0
   -4.8980   24.1870   -9.8440 O   0  0  0  0  0  0  0  0  0  0  0  0
   -2.6070   25.3660  -11.5460 O   0  0  0  0  0  0  0  0  0  0  0  0
  2  1  1  1
  2  3  1  0
  2  4  1  0
  3  5  1  0
  3  6  1  6
  4  7  1  0
  5  8  1  6
  6  9  1  0
  8  9  1  0
  5 10  1  0
  7 10  1  0
  9 11  1  1
 11 12  1  0
 12 13  1  0
 13 14  1  0
 14 15  1  0
 15 16  1  0
 16 17  1  0
 17 18  1  0
 19 18  1  6
 19 20  1  0
 19 21  1  0
 21 22  1  6
 20 23  1  0
 21 24  1  0
 23 24  1  0
 23 25  1  1
 24 26  1  1
M  END
>  <%Rank>  (1167) 
89.007634

>  <N_hits>  (1167) 
2

>  <submitter_name>  (1167) 
nan

>  <original SMILES>  (1167) 
nan

>  <∆G_unbound>  (1167) 
0.265432

>  <∆G_bound>  (1167) 
-7.524152

>  <regarded>  (1167) 
5LW0_1_B_δ,mArh-5cms_A_0_A_α

>  <ref_pdb>  (1167) 
nan

>  <smiles>  (1167) 
NC1NCNC2NC(CCCCCCCCC3OC(O)C(O)C3O)NC12

>  <submitter_email>  (1167) 
nan

>  <disregarded>  (1167) 


>  <LE>  (1167) 
-0.299599

>  <submitter_institution>  (1167) 
nan

>  <ref_mols>  (1167) 
5LW0_1_B,mArh-5cms_A_0_A

>  <N_constrained_atoms>  (1167) 
19.0

>  <ref_url>  (1167) 
nan

>  <method>  (1167) 
nan

>  <comRMSD>  (1167) 
2.296421

>  <N_unconstrained_atoms>  (1167) 
7.0

>  <∆∆G>  (1167) 
-7.789584

>  <runtime>  (1167) 
52.841635

>  <generation_date>  (1167) 
nan

$$$$
mArh-6mea_A_0_A_α-5CB5_0_N_δ
     RDKit          3D

 24 26  0  0  0  0  0  0  0  0999 V2000
   -2.2130   21.4220   -8.7600 C   0  0  0  0  0  0  0  0  0  0  0  0
   -3.2630   21.8660   -7.8090 C   0  0  2  0  0  0  0  0  0  0  0  0
   -4.2130   20.8580   -7.5360 O   0  0  0  0  0  0  0  0  0  0  0  0
   -4.2610   22.9300   -8.1510 C   0  0  2  0  0  0  0  0  0  0  0  0
   -3.8060   24.1020   -8.7790 O   0  0  0  0  0  0  0  0  0  0  0  0
   -4.9100   21.5000   -6.4750 C   0  0  2  0  0  0  0  0  0  0  0  0
   -4.6270   23.0310   -6.6860 C   0  0  2  0  0  0  0  0  0  0  0  0
   -4.2840   20.9560   -5.3220 O   0  0  0  0  0  0  0  0  0  0  0  0
   -5.7290   23.9470   -6.5380 O   0  0  0  0  0  0  0  0  0  0  0  0
   -2.9320   20.3960   -5.5310 C   0  0  0  0  0  0  0  0  0  0  0  0
   -2.6890   19.1880   -6.4800 C   0  0  0  0  0  0  0  0  0  0  0  0
   -2.1990   17.8140   -5.8620 C   0  0  0  0  0  0  0  0  0  0  0  0
   -1.3600   17.8910   -4.5590 C   0  0  0  0  0  0  0  0  0  0  0  0
   -1.1370   16.6190   -3.6210 C   0  0  0  0  0  0  0  0  0  0  0  0
   -2.1910   15.7190   -2.8270 C   0  0  1  0  0  0  0  0  0  0  0  0
   -1.5320   14.4630   -2.4870 N   0  0  0  0  0  0  0  0  0  0  0  0
   -2.7950   16.1720   -1.5330 N   0  0  0  0  0  0  0  0  0  0  0  0
   -1.5420   14.3050   -1.0450 C   0  0  2  0  0  0  0  0  0  0  0  0
   -2.7660   15.0240   -0.5700 C   0  0  1  0  0  0  0  0  0  0  0  0
   -0.3200   14.7170   -0.4120 N   0  0  0  0  0  0  0  0  0  0  0  0
   -2.5310   15.3850    0.9240 C   0  0  1  0  0  0  0  0  0  0  0  0
   -3.7710   15.5130    1.6870 N   0  0  0  0  0  0  0  0  0  0  0  0
   -0.3060   14.4960    1.0220 C   0  0  0  0  0  0  0  0  0  0  0  0
   -1.6560   14.4570    1.5860 N   0  0  0  0  0  0  0  0  0  0  0  0
  2  1  1  6
  2  3  1  0
  2  4  1  0
  4  5  1  1
  3  6  1  0
  4  7  1  0
  6  7  1  0
  6  8  1  1
  7  9  1  6
  8 10  1  0
 10 11  1  0
 11 12  1  0
 12 13  1  0
 13 14  1  0
 15 14  1  1
 15 16  1  0
 15 17  1  0
 18 16  1  6
 19 17  1  6
 18 19  1  0
 18 20  1  0
 19 21  1  0
 21 22  1  1
 20 23  1  0
 21 24  1  0
 23 24  1  0
M  END
>  <%Rank>  (1168) 
89.083969

>  <N_hits>  (1168) 
2

>  <submitter_name>  (1168) 
nan

>  <original SMILES>  (1168) 
nan

>  <∆G_unbound>  (1168) 
0.639202

>  <∆G_bound>  (1168) 
-7.877225

>  <regarded>  (1168) 
mArh-6mea_A_0_A_α,5CB5_0_N_δ

>  <ref_pdb>  (1168) 
nan

>  <smiles>  (1168) 
CC1OC(OCCCCCC2NC3NCNC(N)C3N2)C(O)C1O

>  <submitter_email>  (1168) 
nan

>  <disregarded>  (1168) 


>  <LE>  (1168) 
-0.354851

>  <submitter_institution>  (1168) 
nan

>  <ref_mols>  (1168) 
mArh-6mea_A_0_A,5CB5_0_N

>  <N_constrained_atoms>  (1168) 
19.0

>  <ref_url>  (1168) 
nan

>  <method>  (1168) 
nan

>  <comRMSD>  (1168) 
2.378202

>  <N_unconstrained_atoms>  (1168) 
5.0

>  <∆∆G>  (1168) 
-8.516428

>  <runtime>  (1168) 
40.021281

>  <generation_date>  (1168) 
nan

$$$$
mArh-mac-194_0_A_α-6FX7_0_A_α
     RDKit          3D

 28 30  0  0  0  0  0  0  0  0999 V2000
   -5.9600   14.7430    0.2640 N   0  0  0  0  0  0  0  0  0  0  0  0
   -6.6080   14.7050    1.3530 C   0  0  0  0  0  0  0  0  0  0  0  0
   -5.2830   14.4910    1.7650 N   0  0  0  0  0  0  0  0  0  0  0  0
   -7.5250   14.9460    0.2350 N   0  0  0  0  0  0  0  0  0  0  0  0
   -6.8480   14.9240   -1.0610 C   0  0  0  0  0  0  0  0  0  0  0  0
   -4.5720   14.5290    0.5120 C   0  0  0  0  0  0  0  0  0  0  0  0
   -7.2220   15.0200   -2.3550 N   0  0  0  0  0  0  0  0  0  0  0  0
   -5.7070   14.7260   -0.2720 C   0  0  0  0  0  0  0  0  0  0  0  0
   -3.1880   14.4100    0.3310 C   0  0  0  0  0  0  0  0  0  0  0  0
   -6.3870   14.9170   -3.6110 C   0  0  0  0  0  0  0  0  0  0  0  0
   -2.6850   14.5080   -0.9170 C   0  0  0  0  0  0  0  0  0  0  0  0
   -5.0310   14.8130   -1.5590 C   0  0  0  0  0  0  0  0  0  0  0  0
   -7.2740   14.9560   -4.9220 C   0  0  0  0  0  0  0  0  0  0  0  0
   -3.6380   14.7240   -1.8880 C   0  0  0  0  0  0  0  0  0  0  0  0
   -6.8050   15.7650   -6.2080 C   0  0  0  0  0  0  0  0  0  0  0  0
   -7.8630   16.5610   -7.0870 C   0  0  0  0  0  0  0  0  0  0  0  0
   -7.6280   17.9330   -7.8770 C   0  0  0  0  0  0  0  0  0  0  0  0
   -6.5880   19.0700   -7.4040 C   0  0  0  0  0  0  0  0  0  0  0  0
   -6.2430   20.3630   -8.1970 C   0  0  0  0  0  0  0  0  0  0  0  0
   -4.9950   20.9560   -7.7000 O   0  0  0  0  0  0  0  0  0  0  0  0
   -4.7790   22.2930   -8.2250 C   0  0  1  0  0  0  0  0  0  0  0  0
   -3.3040   22.7690   -8.4080 C   0  0  1  0  0  0  0  0  0  0  0  0
   -5.3580   22.4110   -9.6220 C   0  0  1  0  0  0  0  0  0  0  0  0
   -2.1790   21.7360   -8.2560 C   0  0  0  0  0  0  0  0  0  0  0  0
   -6.1560   23.5840   -9.6580 O   0  0  0  0  0  0  0  0  0  0  0  0
   -3.2370   23.3800   -9.7130 O   0  0  0  0  0  0  0  0  0  0  0  0
   -4.1190   22.5860  -10.4820 C   0  0  2  0  0  0  0  0  0  0  0  0
   -4.4590   23.2540  -11.6790 O   0  0  0  0  0  0  0  0  0  0  0  0
  1  2  1  0
  2  3  2  0
  2  4  1  0
  4  5  1  0
  3  6  1  0
  5  7  2  3
  5  8  1  0
  6  8  2  0
  6  9  1  0
  7 10  1  0
  9 11  2  0
  8 12  1  0
 10 13  1  0
 11 14  1  0
 12 14  2  0
 13 15  1  0
 15 16  1  0
 16 17  1  0
 17 18  1  0
 18 19  1  0
 19 20  1  0
 21 20  1  6
 21 22  1  0
 21 23  1  0
 22 24  1  6
 23 25  1  1
 22 26  1  0
 23 27  1  0
 26 27  1  0
 27 28  1  6
M  END
>  <%Rank>  (1169) 
89.160305

>  <N_hits>  (1169) 
2

>  <submitter_name>  (1169) 
nan

>  <original SMILES>  (1169) 
nan

>  <∆G_unbound>  (1169) 
0.304711

>  <∆G_bound>  (1169) 
75.977607

>  <regarded>  (1169) 
mArh-mac-194_0_A_α,6FX7_0_A_α

>  <ref_pdb>  (1169) 
nan

>  <smiles>  (1169) 
CC1OC(O)C(O)C1OCCCCCCCN=c1[nH]c(N)nc2ccccc12

>  <submitter_email>  (1169) 
nan

>  <disregarded>  (1169) 


>  <LE>  (1169) 
2.702603

>  <submitter_institution>  (1169) 
nan

>  <ref_mols>  (1169) 
mArh-mac-194_0_A,6FX7_0_A

>  <N_constrained_atoms>  (1169) 
21.0

>  <ref_url>  (1169) 
nan

>  <method>  (1169) 
nan

>  <comRMSD>  (1169) 
0.85577

>  <N_unconstrained_atoms>  (1169) 
7.0

>  <∆∆G>  (1169) 
75.672896

>  <runtime>  (1169) 
86.482716

>  <generation_date>  (1169) 
nan

$$$$
mArh-5cms_P_15_P_α-mArh-5cms_A_0_A_γ
     RDKit          3D

 23 24  0  0  0  0  0  0  0  0999 V2000
   -4.0690   21.3980   -8.4430 C   0  0  0  0  0  0  0  0  0  0  0  0
   -3.3530   22.0960   -9.5780 C   0  0  1  0  0  0  0  0  0  0  0  0
   -3.9870   21.8850  -10.8440 O   0  0  0  0  0  0  0  0  0  0  0  0
   -3.3830   23.5690   -9.2600 C   0  0  1  0  0  0  0  0  0  0  0  0
   -2.0770   23.9520   -8.8720 O   0  0  0  0  0  0  0  0  0  0  0  0
   -4.5710   23.0960  -11.3120 C   0  0  2  0  0  0  0  0  0  0  0  0
   -4.0680   24.2600  -10.4880 C   0  0  2  0  0  0  0  0  0  0  0  0
   -5.9580   23.0650  -11.1560 O   0  0  0  0  0  0  0  0  0  0  0  0
   -3.3460   25.2100  -11.3340 O   0  0  0  0  0  0  0  0  0  0  0  0
   -1.6010   23.1320   -7.8060 C   0  0  0  0  0  0  0  0  0  0  0  0
   -1.5650   21.6520   -8.1970 C   0  0  0  0  0  0  0  0  0  0  0  0
   -0.5520   20.8570   -7.4010 C   0  0  0  0  0  0  0  0  0  0  0  0
   -0.4160   19.3830   -7.7630 C   0  0  0  0  0  0  0  0  0  0  0  0
    0.5180   18.6580   -6.7850 C   0  0  0  0  0  0  0  0  0  0  0  0
   -0.1540   17.7850   -5.7290 C   0  0  0  0  0  0  0  0  0  0  0  0
    0.6570   16.5940   -5.1920 C   0  0  0  0  0  0  0  0  0  0  0  0
   -0.1370   15.3660   -4.7510 C   0  0  2  0  0  0  0  0  0  0  0  0
   -0.6700   15.5490   -3.4270 O   0  0  0  0  0  0  0  0  0  0  0  0
    0.5110   13.9950   -4.6470 C   0  0  2  0  0  0  0  0  0  0  0  0
    0.9890   13.3870   -5.8310 O   0  0  0  0  0  0  0  0  0  0  0  0
   -1.0290   14.2390   -2.9510 C   0  0  0  0  0  0  0  0  0  0  0  0
   -0.7170   13.2980   -4.1030 C   0  0  2  0  0  0  0  0  0  0  0  0
   -0.4800   11.9460   -3.7430 O   0  0  0  0  0  0  0  0  0  0  0  0
  2  1  1  1
  2  3  1  0
  2  4  1  0
  4  5  1  6
  3  6  1  0
  4  7  1  0
  6  7  1  0
  6  8  1  1
  7  9  1  6
  5 10  1  0
 10 11  1  0
 11 12  1  0
 12 13  1  0
 13 14  1  0
 14 15  1  0
 15 16  1  0
 17 16  1  1
 17 18  1  0
 17 19  1  0
 19 20  1  6
 18 21  1  0
 19 22  1  0
 21 22  1  0
 22 23  1  1
M  END
>  <%Rank>  (1170) 
89.236641

>  <N_hits>  (1170) 
2

>  <submitter_name>  (1170) 
nan

>  <original SMILES>  (1170) 
nan

>  <∆G_unbound>  (1170) 
0.438128

>  <∆G_bound>  (1170) 
-4.188303

>  <regarded>  (1170) 
mArh-5cms_P_15_P_α,mArh-5cms_A_0_A_γ

>  <ref_pdb>  (1170) 
nan

>  <smiles>  (1170) 
CC1OC(O)C(O)C1OCCCCCCCC1OCC(O)C1O

>  <submitter_email>  (1170) 
nan

>  <disregarded>  (1170) 


>  <LE>  (1170) 
-0.201149

>  <submitter_institution>  (1170) 
nan

>  <ref_mols>  (1170) 
mArh-5cms_P_15_P,mArh-5cms_A_0_A

>  <N_constrained_atoms>  (1170) 
17.0

>  <ref_url>  (1170) 
nan

>  <method>  (1170) 
nan

>  <comRMSD>  (1170) 
2.2309

>  <N_unconstrained_atoms>  (1170) 
6.0

>  <∆∆G>  (1170) 
-4.62643

>  <runtime>  (1170) 
39.078915

>  <generation_date>  (1170) 
nan

$$$$
6WOJ_0_A_δ-5CMS_0_E_α
     RDKit          3D

 25 27  0  0  0  0  0  0  0  0999 V2000
   -4.1830   15.0390    1.1750 N   0  0  0  0  0  0  0  0  0  0  0  0
   -2.9870   14.4780    0.5600 C   0  0  1  0  0  0  0  0  0  0  0  0
   -2.4640   15.3600   -0.5870 C   0  0  1  0  0  0  0  0  0  0  0  0
   -2.0430   14.4400    1.6580 N   0  0  0  0  0  0  0  0  0  0  0  0
   -1.0560   14.8770   -0.9480 C   0  0  2  0  0  0  0  0  0  0  0  0
   -3.1670   15.2510   -1.8970 N   0  0  0  0  0  0  0  0  0  0  0  0
   -0.6590   14.1170    1.2630 C   0  0  0  0  0  0  0  0  0  0  0  0
   -1.1300   14.5130   -2.3650 N   0  0  0  0  0  0  0  0  0  0  0  0
   -2.0220   15.5900   -2.7210 C   0  0  1  0  0  0  0  0  0  0  0  0
   -0.5270   13.8320   -0.1460 N   0  0  0  0  0  0  0  0  0  0  0  0
   -2.2690   15.9030   -4.2070 C   0  0  0  0  0  0  0  0  0  0  0  0
   -1.6510   17.2630   -4.6320 C   0  0  0  0  0  0  0  0  0  0  0  0
   -0.8080   17.3160   -5.9020 C   0  0  0  0  0  0  0  0  0  0  0  0
    0.1860   18.4660   -5.9820 C   0  0  0  0  0  0  0  0  0  0  0  0
   -0.1810   19.5180   -7.0540 C   0  0  0  0  0  0  0  0  0  0  0  0
   -1.2540   20.5660   -6.6790 C   0  0  0  0  0  0  0  0  0  0  0  0
   -2.4750   20.5920   -7.5690 C   0  0  0  0  0  0  0  0  0  0  0  0
   -3.2200   21.9130   -7.7830 C   0  0  2  0  0  0  0  0  0  0  0  0
   -4.6500   21.9810   -7.9560 O   0  0  0  0  0  0  0  0  0  0  0  0
   -2.8710   22.3570   -9.1090 C   0  0  1  0  0  0  0  0  0  0  0  0
   -3.3270   21.5520  -10.1760 O   0  0  0  0  0  0  0  0  0  0  0  0
   -4.8670   23.0570   -8.9000 C   0  0  2  0  0  0  0  0  0  0  0  0
   -3.5430   23.6840   -9.1130 C   0  0  2  0  0  0  0  0  0  0  0  0
   -5.6820   24.0870   -8.4190 O   0  0  0  0  0  0  0  0  0  0  0  0
   -3.7520   24.4010  -10.3420 O   0  0  0  0  0  0  0  0  0  0  0  0
  2  1  1  1
  2  3  1  0
  2  4  1  0
  3  5  1  0
  3  6  1  6
  4  7  1  0
  5  8  1  6
  6  9  1  0
  8  9  1  0
  5 10  1  0
  7 10  1  0
  9 11  1  6
 11 12  1  0
 12 13  1  0
 13 14  1  0
 14 15  1  0
 15 16  1  0
 16 17  1  0
 18 17  1  6
 18 19  1  0
 18 20  1  0
 20 21  1  6
 19 22  1  0
 20 23  1  0
 22 23  1  0
 22 24  1  1
 23 25  1  6
M  END
>  <%Rank>  (1171) 
89.312977

>  <N_hits>  (1171) 
2

>  <submitter_name>  (1171) 
nan

>  <original SMILES>  (1171) 
nan

>  <∆G_unbound>  (1171) 
2.610404

>  <∆G_bound>  (1171) 
-5.25923

>  <regarded>  (1171) 
6WOJ_0_A_δ,5CMS_0_E_α

>  <ref_pdb>  (1171) 
nan

>  <smiles>  (1171) 
NC1NCNC2NC(CCCCCCCC3OC(O)C(O)C3O)NC12

>  <submitter_email>  (1171) 
nan

>  <disregarded>  (1171) 


>  <LE>  (1171) 
-0.314785

>  <submitter_institution>  (1171) 
nan

>  <ref_mols>  (1171) 
6WOJ_0_A,5CMS_0_E

>  <N_constrained_atoms>  (1171) 
19.0

>  <ref_url>  (1171) 
nan

>  <method>  (1171) 
nan

>  <comRMSD>  (1171) 
2.37074

>  <N_unconstrained_atoms>  (1171) 
6.0

>  <∆∆G>  (1171) 
-7.869635

>  <runtime>  (1171) 
33.92663

>  <generation_date>  (1171) 
nan

$$$$
mArh-5cb5_H_0_H_α-6MEA_0_B_δ
     RDKit          3D

 24 26  0  0  0  0  0  0  0  0999 V2000
   -1.6340   21.5370   -8.5760 C   0  0  0  0  0  0  0  0  0  0  0  0
   -2.9440   21.9010   -7.9690 C   0  0  2  0  0  0  0  0  0  0  0  0
   -4.0250   21.1060   -8.3930 O   0  0  0  0  0  0  0  0  0  0  0  0
   -3.5820   23.2490   -8.1320 C   0  0  1  0  0  0  0  0  0  0  0  0
   -4.2140   23.4450   -9.4030 O   0  0  0  0  0  0  0  0  0  0  0  0
   -4.8380   21.3890   -7.2820 C   0  0  2  0  0  0  0  0  0  0  0  0
   -4.5790   22.9220   -7.0100 C   0  0  2  0  0  0  0  0  0  0  0  0
   -4.3170   20.5540   -6.2320 O   0  0  0  0  0  0  0  0  0  0  0  0
   -5.7630   23.7440   -7.1280 O   0  0  0  0  0  0  0  0  0  0  0  0
   -3.1670   19.6830   -6.5780 C   0  0  0  0  0  0  0  0  0  0  0  0
   -2.1400   19.4800   -5.4330 C   0  0  0  0  0  0  0  0  0  0  0  0
   -1.5450   18.0720   -4.9850 C   0  0  0  0  0  0  0  0  0  0  0  0
   -2.3720   16.7440   -5.0710 C   0  0  0  0  0  0  0  0  0  0  0  0
   -2.8430   15.8900   -3.8030 C   0  0  0  0  0  0  0  0  0  0  0  0
   -2.1020   15.6930   -2.4270 C   0  0  2  0  0  0  0  0  0  0  0  0
   -1.3170   14.4690   -2.3530 N   0  0  0  0  0  0  0  0  0  0  0  0
   -2.9800   15.6980   -1.2090 N   0  0  0  0  0  0  0  0  0  0  0  0
   -1.3460   14.0130   -0.9800 C   0  0  2  0  0  0  0  0  0  0  0  0
   -2.7020   14.4450   -0.4420 C   0  0  1  0  0  0  0  0  0  0  0  0
   -0.1500   14.4070   -0.2760 N   0  0  0  0  0  0  0  0  0  0  0  0
   -2.6410   14.5750    1.1080 C   0  0  2  0  0  0  0  0  0  0  0  0
   -3.7200   15.3460    1.6860 N   0  0  0  0  0  0  0  0  0  0  0  0
   -0.2830   14.4700    1.1640 C   0  0  0  0  0  0  0  0  0  0  0  0
   -1.4460   15.2280    1.5160 N   0  0  0  0  0  0  0  0  0  0  0  0
  2  1  1  6
  2  3  1  0
  2  4  1  0
  4  5  1  6
  3  6  1  0
  4  7  1  0
  6  7  1  0
  6  8  1  1
  7  9  1  6
  8 10  1  0
 10 11  1  0
 11 12  1  0
 12 13  1  0
 13 14  1  0
 15 14  1  6
 15 16  1  0
 15 17  1  0
 18 16  1  6
 19 17  1  6
 18 19  1  0
 18 20  1  0
 19 21  1  0
 21 22  1  6
 20 23  1  0
 21 24  1  0
 23 24  1  0
M  END
>  <%Rank>  (1172) 
89.389313

>  <N_hits>  (1172) 
2

>  <submitter_name>  (1172) 
nan

>  <original SMILES>  (1172) 
nan

>  <∆G_unbound>  (1172) 
0.639202

>  <∆G_bound>  (1172) 
-7.736636

>  <regarded>  (1172) 
mArh-5cb5_H_0_H_α,6MEA_0_B_δ

>  <ref_pdb>  (1172) 
nan

>  <smiles>  (1172) 
CC1OC(OCCCCCC2NC3NCNC(N)C3N2)C(O)C1O

>  <submitter_email>  (1172) 
nan

>  <disregarded>  (1172) 


>  <LE>  (1172) 
-0.348993

>  <submitter_institution>  (1172) 
nan

>  <ref_mols>  (1172) 
mArh-5cb5_H_0_H,6MEA_0_B

>  <N_constrained_atoms>  (1172) 
19.0

>  <ref_url>  (1172) 
nan

>  <method>  (1172) 
nan

>  <comRMSD>  (1172) 
2.420241

>  <N_unconstrained_atoms>  (1172) 
5.0

>  <∆∆G>  (1172) 
-8.375838

>  <runtime>  (1172) 
50.2601

>  <generation_date>  (1172) 
nan

$$$$
mArh-x0574_0_A_α-mArh-5cb3_0_A_α
     RDKit          3D

 28 30  0  0  0  0  0  0  0  0999 V2000
   -0.1440   14.2300    1.9130 N   0  0  0  0  0  0  0  0  0  0  0  0
   -1.2380   14.4160    1.1380 C   0  0  0  0  0  0  0  0  0  0  0  0
   -2.4410   14.4390    1.6450 N   0  0  0  0  0  0  0  0  0  0  0  0
   -1.1500   14.6250   -0.5570 S   0  0  0  0  0  0  0  0  0  0  0  0
   -3.4020   14.6140    0.6320 C   0  0  0  0  0  0  0  0  0  0  0  0
   -2.8760   14.7390   -0.6470 C   0  0  0  0  0  0  0  0  0  0  0  0
   -4.8210   14.6680    0.7800 C   0  0  0  0  0  0  0  0  0  0  0  0
   -3.7130   14.9230   -1.7610 C   0  0  0  0  0  0  0  0  0  0  0  0
   -5.7270   14.8400   -0.3060 C   0  0  0  0  0  0  0  0  0  0  0  0
   -5.1150   14.9680   -1.5670 C   0  0  0  0  0  0  0  0  0  0  0  0
   -7.1410   14.8680   -0.0950 N   0  0  0  0  0  0  0  0  0  0  0  0
   -7.6860   14.4800    1.2080 C   0  0  0  0  0  0  0  0  0  0  0  0
   -8.1380   15.4520   -1.0580 C   0  0  0  0  0  0  0  0  0  0  0  0
   -7.5630   16.6930   -1.7360 C   0  0  0  0  0  0  0  0  0  0  0  0
   -8.5700   17.8640   -2.1570 C   0  0  0  0  0  0  0  0  0  0  0  0
   -8.2450   19.4030   -2.8620 C   0  0  0  0  0  0  0  0  0  0  0  0
   -6.6880   21.1420   -4.0670 C   0  0  0  0  0  0  0  0  0  0  0  0
   -5.9340   21.5730   -5.4850 C   0  0  0  0  0  0  0  0  0  0  0  0
   -4.4190   21.3570   -5.4250 C   0  0  0  0  0  0  0  0  0  0  0  0
   -3.9890   21.0980   -6.7020 O   0  0  0  0  0  0  0  0  0  0  0  0
   -4.8780   21.8420   -7.5070 C   0  0  2  0  0  0  0  0  0  0  0  0
   -4.7200   21.4680   -8.8380 O   0  0  0  0  0  0  0  0  0  0  0  0
   -4.4820   23.3060   -7.3740 C   0  0  2  0  0  0  0  0  0  0  0  0
   -5.6050   24.1580   -7.0910 O   0  0  0  0  0  0  0  0  0  0  0  0
   -3.5410   22.1310   -9.1940 C   0  0  1  0  0  0  0  0  0  0  0  0
   -3.8240   23.5510   -8.7320 C   0  0  1  0  0  0  0  0  0  0  0  0
   -2.3320   21.4610   -8.5310 C   0  0  0  0  0  0  0  0  0  0  0  0
   -4.6700   24.2750   -9.6180 O   0  0  0  0  0  0  0  0  0  0  0  0
  1  2  1  0
  2  3  2  0
  2  4  1  0
  3  5  1  0
  4  6  1  0
  5  6  2  0
  5  7  1  0
  6  8  1  0
  7  9  2  0
  8 10  2  0
  9 10  1  0
  9 11  1  0
 11 12  1  0
 11 13  1  0
 13 14  1  0
 14 15  1  0
 15 16  1  0
 16 17  1  0
 17 18  1  0
 18 19  1  0
 19 20  1  0
 21 20  1  1
 21 22  1  0
 21 23  1  0
 23 24  1  6
 22 25  1  0
 23 26  1  0
 25 26  1  0
 25 27  1  1
 26 28  1  6
M  END
>  <%Rank>  (1173) 
89.465649

>  <N_hits>  (1173) 
2

>  <submitter_name>  (1173) 
nan

>  <original SMILES>  (1173) 
nan

>  <∆G_unbound>  (1173) 
0.542464

>  <∆G_bound>  (1173) 
79.383938

>  <regarded>  (1173) 
mArh-x0574_0_A_α,mArh-5cb3_0_A_α

>  <ref_pdb>  (1173) 
nan

>  <smiles>  (1173) 
CC1OC(OCCCCCCCN(C)c2ccc3sc(N)nc3c2)C(O)C1O

>  <submitter_email>  (1173) 
nan

>  <disregarded>  (1173) 


>  <LE>  (1173) 
2.815767

>  <submitter_institution>  (1173) 
nan

>  <ref_mols>  (1173) 
mArh-x0574_0_A,mArh-5cb3_0_A

>  <N_constrained_atoms>  (1173) 
21.0

>  <ref_url>  (1173) 
nan

>  <method>  (1173) 
nan

>  <comRMSD>  (1173) 
0.845022

>  <N_unconstrained_atoms>  (1173) 
7.0

>  <∆∆G>  (1173) 
78.841474

>  <runtime>  (1173) 
91.167322

>  <generation_date>  (1173) 
nan

$$$$
5CMS_0_F_δ-mArh-5cms_B_1_B_α
     RDKit          3D

 25 27  0  0  0  0  0  0  0  0999 V2000
   -3.7170   14.2310    1.1620 N   0  0  0  0  0  0  0  0  0  0  0  0
   -2.6410   15.1800    1.0530 C   0  0  2  0  0  0  0  0  0  0  0  0
   -2.3770   15.6260   -0.4060 C   0  0  1  0  0  0  0  0  0  0  0  0
   -1.5290   14.5100    1.6850 N   0  0  0  0  0  0  0  0  0  0  0  0
   -1.0010   15.2420   -0.9830 C   0  0  2  0  0  0  0  0  0  0  0  0
   -3.3010   15.0690   -1.4160 N   0  0  0  0  0  0  0  0  0  0  0  0
   -0.2670   14.9450    1.1380 C   0  0  0  0  0  0  0  0  0  0  0  0
   -1.2960   14.6180   -2.2710 N   0  0  0  0  0  0  0  0  0  0  0  0
   -2.4930   15.3820   -2.5840 C   0  0  1  0  0  0  0  0  0  0  0  0
   -0.1370   14.4570   -0.1880 N   0  0  0  0  0  0  0  0  0  0  0  0
   -3.1550   15.1080   -3.9500 C   0  0  0  0  0  0  0  0  0  0  0  0
   -2.6570   15.9840   -5.1420 C   0  0  0  0  0  0  0  0  0  0  0  0
   -1.3500   16.8020   -4.9880 C   0  0  0  0  0  0  0  0  0  0  0  0
   -1.4040   18.3100   -5.3450 C   0  0  0  0  0  0  0  0  0  0  0  0
   -1.9170   18.7130   -6.7410 C   0  0  0  0  0  0  0  0  0  0  0  0
   -2.3140   20.2030   -6.9040 C   0  0  0  0  0  0  0  0  0  0  0  0
   -1.9160   20.9740   -8.1910 C   0  0  0  0  0  0  0  0  0  0  0  0
   -2.8200   22.1580   -8.5920 C   0  0  2  0  0  0  0  0  0  0  0  0
   -3.8240   22.5550   -7.6880 O   0  0  0  0  0  0  0  0  0  0  0  0
   -3.7970   22.1630   -9.7530 C   0  0  1  0  0  0  0  0  0  0  0  0
   -5.0710   21.7020   -9.5080 O   0  0  0  0  0  0  0  0  0  0  0  0
   -4.1970   23.7900   -8.2910 C   0  0  2  0  0  0  0  0  0  0  0  0
   -3.9290   23.6560   -9.7760 C   0  0  2  0  0  0  0  0  0  0  0  0
   -3.2310   24.6740   -7.7860 O   0  0  0  0  0  0  0  0  0  0  0  0
   -4.8610   24.1310  -10.7660 O   0  0  0  0  0  0  0  0  0  0  0  0
  2  1  1  6
  2  3  1  0
  2  4  1  0
  3  5  1  0
  3  6  1  6
  4  7  1  0
  5  8  1  6
  6  9  1  0
  8  9  1  0
  5 10  1  0
  7 10  1  0
  9 11  1  6
 11 12  1  0
 12 13  1  0
 13 14  1  0
 14 15  1  0
 15 16  1  0
 16 17  1  0
 18 17  1  1
 18 19  1  0
 18 20  1  0
 20 21  1  1
 19 22  1  0
 20 23  1  0
 22 23  1  0
 22 24  1  1
 23 25  1  6
M  END
>  <%Rank>  (1174) 
89.541985

>  <N_hits>  (1174) 
2

>  <submitter_name>  (1174) 
nan

>  <original SMILES>  (1174) 
nan

>  <∆G_unbound>  (1174) 
2.610404

>  <∆G_bound>  (1174) 
-4.46356

>  <regarded>  (1174) 
5CMS_0_F_δ,mArh-5cms_B_1_B_α

>  <ref_pdb>  (1174) 
nan

>  <smiles>  (1174) 
NC1NCNC2NC(CCCCCCCC3OC(O)C(O)C3O)NC12

>  <submitter_email>  (1174) 
nan

>  <disregarded>  (1174) 


>  <LE>  (1174) 
-0.282959

>  <submitter_institution>  (1174) 
nan

>  <ref_mols>  (1174) 
5CMS_0_F,mArh-5cms_B_1_B

>  <N_constrained_atoms>  (1174) 
19.0

>  <ref_url>  (1174) 
nan

>  <method>  (1174) 
nan

>  <comRMSD>  (1174) 
2.421497

>  <N_unconstrained_atoms>  (1174) 
6.0

>  <∆∆G>  (1174) 
-7.073964

>  <runtime>  (1174) 
42.05029

>  <generation_date>  (1174) 
nan

$$$$
5CMS_0_B_α-mArh-5cb5_I_0_I_γ
     RDKit          3D

 23 24  0  0  0  0  0  0  0  0999 V2000
   -1.8680   22.2410   -8.3120 C   0  0  0  0  0  0  0  0  0  0  0  0
   -3.1930   22.7600   -8.8790 C   0  0  1  0  0  0  0  0  0  0  0  0
   -3.1250   24.0410   -9.4090 O   0  0  0  0  0  0  0  0  0  0  0  0
   -3.7840   21.9350   -9.9640 C   0  0  1  0  0  0  0  0  0  0  0  0
   -4.9300   21.5160   -9.2940 O   0  0  0  0  0  0  0  0  0  0  0  0
   -4.0910   24.1890  -10.4580 C   0  0  2  0  0  0  0  0  0  0  0  0
   -4.2770   22.8260  -11.0960 C   0  0  2  0  0  0  0  0  0  0  0  0
   -3.6530   25.1750  -11.3860 O   0  0  0  0  0  0  0  0  0  0  0  0
   -5.6370   22.6860  -11.4180 O   0  0  0  0  0  0  0  0  0  0  0  0
   -4.9100   21.9540   -7.9180 C   0  0  0  0  0  0  0  0  0  0  0  0
   -3.5470   21.5890   -7.2930 C   0  0  0  0  0  0  0  0  0  0  0  0
   -3.5810   20.9680   -5.8930 C   0  0  0  0  0  0  0  0  0  0  0  0
   -2.3060   20.1830   -5.4840 C   0  0  0  0  0  0  0  0  0  0  0  0
   -2.1090   18.6970   -5.9140 C   0  0  0  0  0  0  0  0  0  0  0  0
   -0.6500   18.2960   -6.2590 C   0  0  0  0  0  0  0  0  0  0  0  0
    0.1980   17.3740   -5.3220 C   0  0  0  0  0  0  0  0  0  0  0  0
   -0.4350   16.1850   -4.5590 C   0  0  2  0  0  0  0  0  0  0  0  0
    0.0880   16.0450   -3.2240 O   0  0  0  0  0  0  0  0  0  0  0  0
   -0.3320   14.7500   -5.0910 C   0  0  1  0  0  0  0  0  0  0  0  0
    0.9860   14.2770   -5.3450 O   0  0  0  0  0  0  0  0  0  0  0  0
   -0.3230   14.7480   -2.7450 C   0  0  0  0  0  0  0  0  0  0  0  0
   -0.9800   14.0370   -3.9210 C   0  0  2  0  0  0  0  0  0  0  0  0
   -0.7790   12.6310   -3.9680 O   0  0  0  0  0  0  0  0  0  0  0  0
  2  1  1  6
  2  3  1  0
  2  4  1  0
  4  5  1  1
  3  6  1  0
  4  7  1  0
  6  7  1  0
  6  8  1  6
  7  9  1  1
  5 10  1  0
 10 11  1  0
 11 12  1  0
 12 13  1  0
 13 14  1  0
 14 15  1  0
 15 16  1  0
 17 16  1  6
 17 18  1  0
 17 19  1  0
 19 20  1  1
 18 21  1  0
 19 22  1  0
 21 22  1  0
 22 23  1  6
M  END
>  <%Rank>  (1175) 
89.618321

>  <N_hits>  (1175) 
2

>  <submitter_name>  (1175) 
nan

>  <original SMILES>  (1175) 
nan

>  <∆G_unbound>  (1175) 
0.438128

>  <∆G_bound>  (1175) 
-2.314423

>  <regarded>  (1175) 
5CMS_0_B_α,mArh-5cb5_I_0_I_γ

>  <ref_pdb>  (1175) 
nan

>  <smiles>  (1175) 
CC1OC(O)C(O)C1OCCCCCCCC1OCC(O)C1O

>  <submitter_email>  (1175) 
nan

>  <disregarded>  (1175) 


>  <LE>  (1175) 
-0.119676

>  <submitter_institution>  (1175) 
nan

>  <ref_mols>  (1175) 
5CMS_0_B,mArh-5cb5_I_0_I

>  <N_constrained_atoms>  (1175) 
17.0

>  <ref_url>  (1175) 
nan

>  <method>  (1175) 
nan

>  <comRMSD>  (1175) 
2.283477

>  <N_unconstrained_atoms>  (1175) 
6.0

>  <∆∆G>  (1175) 
-2.752551

>  <runtime>  (1175) 
33.61624

>  <generation_date>  (1175) 
nan

$$$$
mArh-5lw0_B_1_B_α-5CMS_0_J_δ
     RDKit          3D

 24 26  0  0  0  0  0  0  0  0999 V2000
   -2.7270   22.1570   -7.7190 C   0  0  0  0  0  0  0  0  0  0  0  0
   -4.1600   21.8610   -7.2480 C   0  0  2  0  0  0  0  0  0  0  0  0
   -4.3950   20.4270   -7.0710 O   0  0  0  0  0  0  0  0  0  0  0  0
   -5.2800   22.4330   -8.1760 C   0  0  1  0  0  0  0  0  0  0  0  0
   -4.8270   22.8840   -9.4510 O   0  0  0  0  0  0  0  0  0  0  0  0
   -5.7840   20.3440   -7.2550 C   0  0  1  0  0  0  0  0  0  0  0  0
   -6.1460   21.2300   -8.4210 C   0  0  1  0  0  0  0  0  0  0  0  0
   -6.4850   19.0390   -7.1720 O   0  0  0  0  0  0  0  0  0  0  0  0
   -7.5340   21.4890   -8.5470 O   0  0  0  0  0  0  0  0  0  0  0  0
   -6.2790   17.5860   -7.5690 C   0  0  0  0  0  0  0  0  0  0  0  0
   -5.1510   16.5580   -7.0560 C   0  0  0  0  0  0  0  0  0  0  0  0
   -5.7090   15.2690   -6.3210 C   0  0  0  0  0  0  0  0  0  0  0  0
   -5.1620   14.7190   -4.9240 C   0  0  0  0  0  0  0  0  0  0  0  0
   -3.7180   14.9920   -4.3780 C   0  0  0  0  0  0  0  0  0  0  0  0
   -3.3330   15.1460   -2.8380 C   0  0  2  0  0  0  0  0  0  0  0  0
   -1.9270   14.8020   -2.5650 N   0  0  0  0  0  0  0  0  0  0  0  0
   -4.0700   14.4880   -1.7070 N   0  0  0  0  0  0  0  0  0  0  0  0
   -1.8750   14.4340   -1.1650 C   0  0  2  0  0  0  0  0  0  0  0  0
   -3.1740   14.9660   -0.6050 C   0  0  2  0  0  0  0  0  0  0  0  0
   -0.6590   14.7950   -0.4910 N   0  0  0  0  0  0  0  0  0  0  0  0
   -3.2690   14.4980    0.8700 C   0  0  2  0  0  0  0  0  0  0  0  0
   -4.0120   15.4260    1.7060 N   0  0  0  0  0  0  0  0  0  0  0  0
   -0.8160   15.0430    0.9270 C   0  0  0  0  0  0  0  0  0  0  0  0
   -1.9580   14.3470    1.5190 N   0  0  0  0  0  0  0  0  0  0  0  0
  2  1  1  6
  2  3  1  0
  2  4  1  0
  4  5  1  6
  3  6  1  0
  4  7  1  0
  6  7  1  0
  6  8  1  6
  7  9  1  1
  8 10  1  0
 10 11  1  0
 11 12  1  0
 12 13  1  0
 13 14  1  0
 15 14  1  6
 15 16  1  0
 15 17  1  0
 18 16  1  6
 19 17  1  6
 18 19  1  0
 18 20  1  0
 19 21  1  0
 21 22  1  1
 20 23  1  0
 21 24  1  0
 23 24  1  0
M  END
>  <%Rank>  (1176) 
89.694656

>  <N_hits>  (1176) 
2

>  <submitter_name>  (1176) 
nan

>  <original SMILES>  (1176) 
nan

>  <∆G_unbound>  (1176) 
0.639202

>  <∆G_bound>  (1176) 
-1.334741

>  <regarded>  (1176) 
mArh-5lw0_B_1_B_α,5CMS_0_J_δ

>  <ref_pdb>  (1176) 
nan

>  <smiles>  (1176) 
CC1OC(OCCCCCC2NC3NCNC(N)C3N2)C(O)C1O

>  <submitter_email>  (1176) 
nan

>  <disregarded>  (1176) 


>  <LE>  (1176) 
-0.082248

>  <submitter_institution>  (1176) 
nan

>  <ref_mols>  (1176) 
mArh-5lw0_B_1_B,5CMS_0_J

>  <N_constrained_atoms>  (1176) 
19.0

>  <ref_url>  (1176) 
nan

>  <method>  (1176) 
nan

>  <comRMSD>  (1176) 
2.363058

>  <N_unconstrained_atoms>  (1176) 
5.0

>  <∆∆G>  (1176) 
-1.973944

>  <runtime>  (1176) 
33.106961

>  <generation_date>  (1176) 
nan

$$$$
6WOJ_0_D_α-5DUS_0_A_δ
     RDKit          3D

 24 26  0  0  0  0  0  0  0  0999 V2000
   -1.4880   22.0590   -7.9500 C   0  0  0  0  0  0  0  0  0  0  0  0
   -2.8870   22.2970   -7.4390 C   0  0  2  0  0  0  0  0  0  0  0  0
   -3.8450   21.3850   -7.9370 O   0  0  0  0  0  0  0  0  0  0  0  0
   -3.5640   23.6360   -7.6790 C   0  0  1  0  0  0  0  0  0  0  0  0
   -3.7320   24.0070   -9.0360 O   0  0  0  0  0  0  0  0  0  0  0  0
   -4.9500   21.7550   -7.1150 C   0  0  2  0  0  0  0  0  0  0  0  0
   -4.9570   23.3150   -7.1710 C   0  0  1  0  0  0  0  0  0  0  0  0
   -4.7360   21.1220   -5.8430 O   0  0  0  0  0  0  0  0  0  0  0  0
   -5.2780   24.0560   -5.9830 O   0  0  0  0  0  0  0  0  0  0  0  0
   -3.3330   20.7710   -5.5530 C   0  0  0  0  0  0  0  0  0  0  0  0
   -2.6210   19.4880   -6.1630 C   0  0  0  0  0  0  0  0  0  0  0  0
   -1.7040   18.6620   -5.1830 C   0  0  0  0  0  0  0  0  0  0  0  0
   -2.0530   17.1480   -4.9420 C   0  0  0  0  0  0  0  0  0  0  0  0
   -1.3900   16.4180   -3.7160 C   0  0  0  0  0  0  0  0  0  0  0  0
   -2.1890   15.5110   -2.6890 C   0  0  1  0  0  0  0  0  0  0  0  0
   -1.3930   14.3400   -2.3410 N   0  0  0  0  0  0  0  0  0  0  0  0
   -2.6210   16.0860   -1.3850 N   0  0  0  0  0  0  0  0  0  0  0  0
   -1.4630   14.1200   -0.9090 C   0  0  2  0  0  0  0  0  0  0  0  0
   -2.6140   14.9610   -0.4120 C   0  0  1  0  0  0  0  0  0  0  0  0
   -0.1900   14.3260   -0.2720 N   0  0  0  0  0  0  0  0  0  0  0  0
   -2.3140   15.3380    1.0570 C   0  0  1  0  0  0  0  0  0  0  0  0
   -3.5310   15.5600    1.8260 N   0  0  0  0  0  0  0  0  0  0  0  0
   -0.2050   14.2780    1.1790 C   0  0  0  0  0  0  0  0  0  0  0  0
   -1.5530   14.3190    1.7030 N   0  0  0  0  0  0  0  0  0  0  0  0
  2  1  1  6
  2  3  1  0
  2  4  1  0
  4  5  1  6
  3  6  1  0
  4  7  1  0
  6  7  1  0
  6  8  1  1
  7  9  1  1
  8 10  1  0
 10 11  1  0
 11 12  1  0
 12 13  1  0
 13 14  1  0
 15 14  1  1
 15 16  1  0
 15 17  1  0
 18 16  1  6
 19 17  1  6
 18 19  1  0
 18 20  1  0
 19 21  1  0
 21 22  1  1
 20 23  1  0
 21 24  1  0
 23 24  1  0
M  END
>  <%Rank>  (1177) 
89.770992

>  <N_hits>  (1177) 
2

>  <submitter_name>  (1177) 
nan

>  <original SMILES>  (1177) 
nan

>  <∆G_unbound>  (1177) 
0.639202

>  <∆G_bound>  (1177) 
-9.201375

>  <regarded>  (1177) 
6WOJ_0_D_α,5DUS_0_A_δ

>  <ref_pdb>  (1177) 
nan

>  <smiles>  (1177) 
CC1OC(OCCCCCC2NC3NCNC(N)C3N2)C(O)C1O

>  <submitter_email>  (1177) 
nan

>  <disregarded>  (1177) 


>  <LE>  (1177) 
-0.410024

>  <submitter_institution>  (1177) 
nan

>  <ref_mols>  (1177) 
6WOJ_0_D,5DUS_0_A

>  <N_constrained_atoms>  (1177) 
19.0

>  <ref_url>  (1177) 
nan

>  <method>  (1177) 
nan

>  <comRMSD>  (1177) 
2.558106

>  <N_unconstrained_atoms>  (1177) 
5.0

>  <∆∆G>  (1177) 
-9.840578

>  <runtime>  (1177) 
47.41772

>  <generation_date>  (1177) 
nan

$$$$
mArh-5mqx_0_A_α-5CMS_0_J_δ
     RDKit          3D

 23 25  0  0  0  0  0  0  0  0999 V2000
   -5.9610   20.4780   -7.7000 C   0  0  0  0  0  0  0  0  0  0  0  0
   -6.6290   19.1410   -7.9780 C   0  0  2  0  0  0  0  0  0  0  0  0
   -5.9190   17.9540   -7.6380 O   0  0  0  0  0  0  0  0  0  0  0  0
   -7.7910   18.9220   -8.9040 C   0  0  1  0  0  0  0  0  0  0  0  0
   -7.7080   19.3360  -10.2390 O   0  0  0  0  0  0  0  0  0  0  0  0
   -6.7620   16.8600   -8.0150 C   0  0  2  0  0  0  0  0  0  0  0  0
   -8.0600   17.4370   -8.6490 C   0  0  2  0  0  0  0  0  0  0  0  0
   -7.0200   16.0780   -6.8390 O   0  0  0  0  0  0  0  0  0  0  0  0
   -8.5210   16.8420   -9.8420 O   0  0  0  0  0  0  0  0  0  0  0  0
   -6.0510   15.0220   -6.7640 C   0  0  0  0  0  0  0  0  0  0  0  0
   -5.8790   14.4740   -5.3380 C   0  0  0  0  0  0  0  0  0  0  0  0
   -4.4110   14.3630   -4.8610 C   0  0  0  0  0  0  0  0  0  0  0  0
   -4.0720   15.1860   -3.6030 C   0  0  0  0  0  0  0  0  0  0  0  0
   -3.3920   14.4100   -2.4780 C   0  0  1  0  0  0  0  0  0  0  0  0
   -1.9740   14.7640   -2.3430 N   0  0  0  0  0  0  0  0  0  0  0  0
   -4.0280   14.7330   -1.1930 N   0  0  0  0  0  0  0  0  0  0  0  0
   -1.7530   14.4300   -0.9640 C   0  0  2  0  0  0  0  0  0  0  0  0
   -2.9020   15.1600   -0.3440 C   0  0  2  0  0  0  0  0  0  0  0  0
   -0.4660   14.8300   -0.4810 N   0  0  0  0  0  0  0  0  0  0  0  0
   -2.9430   14.6780    1.0970 C   0  0  2  0  0  0  0  0  0  0  0  0
   -3.8350   15.4690    1.9320 N   0  0  0  0  0  0  0  0  0  0  0  0
   -0.5490   15.3200    0.8850 C   0  0  0  0  0  0  0  0  0  0  0  0
   -1.6190   14.7010    1.6790 N   0  0  0  0  0  0  0  0  0  0  0  0
  2  1  1  6
  2  3  1  0
  2  4  1  0
  4  5  1  6
  3  6  1  0
  4  7  1  0
  6  7  1  0
  6  8  1  1
  7  9  1  6
  8 10  1  0
 10 11  1  0
 11 12  1  0
 12 13  1  0
 14 13  1  6
 14 15  1  0
 14 16  1  0
 17 15  1  6
 18 16  1  6
 17 18  1  0
 17 19  1  0
 18 20  1  0
 20 21  1  1
 19 22  1  0
 20 23  1  0
 22 23  1  0
M  END
>  <%Rank>  (1178) 
89.847328

>  <N_hits>  (1178) 
2

>  <submitter_name>  (1178) 
nan

>  <original SMILES>  (1178) 
nan

>  <∆G_unbound>  (1178) 
3.035656

>  <∆G_bound>  (1178) 
0.033904

>  <regarded>  (1178) 
mArh-5mqx_0_A_α,5CMS_0_J_δ

>  <ref_pdb>  (1178) 
nan

>  <smiles>  (1178) 
CC1OC(OCCCCC2NC3NCNC(N)C3N2)C(O)C1O

>  <submitter_email>  (1178) 
nan

>  <disregarded>  (1178) 


>  <LE>  (1178) 
-0.130511

>  <submitter_institution>  (1178) 
nan

>  <ref_mols>  (1178) 
mArh-5mqx_0_A,5CMS_0_J

>  <N_constrained_atoms>  (1178) 
19.0

>  <ref_url>  (1178) 
nan

>  <method>  (1178) 
nan

>  <comRMSD>  (1178) 
2.486772

>  <N_unconstrained_atoms>  (1178) 
4.0

>  <∆∆G>  (1178) 
-3.001752

>  <runtime>  (1178) 
28.839864

>  <generation_date>  (1178) 
nan

$$$$
mArh-x0962_2_B_α-4IQY_0_A_δ
     RDKit          3D

 19 21  0  0  0  0  0  0  0  0999 V2000
   -9.8520   16.4160    0.8440 N   0  0  0  0  0  0  0  0  0  0  0  0
   -9.2810   15.4360    1.1030 C   0  0  0  0  0  0  0  0  0  0  0  0
   -8.6340   14.1830    1.4330 C   0  0  0  0  0  0  0  0  0  0  0  0
   -7.2960   14.1120    2.0290 N   0  0  0  0  0  0  0  0  0  0  0  0
   -9.1680   12.9020    1.2470 C   0  0  0  0  0  0  0  0  0  0  0  0
   -6.9980   12.8030    2.2150 C   0  0  0  0  0  0  0  0  0  0  0  0
   -8.1040   12.3610    1.7440 N   0  0  0  0  0  0  0  0  0  0  0  0
   -7.9170   13.8010    1.7300 C   0  0  0  0  0  0  0  0  0  0  0  0
   -6.8170   14.1990    0.6830 C   0  0  0  0  0  0  0  0  0  0  0  0
   -5.6210   14.8060    1.2990 N   0  0  0  0  0  0  0  0  0  0  0  0
   -4.3980   14.8840    0.5030 C   0  0  2  0  0  0  0  0  0  0  0  0
   -4.3730   14.2360   -0.9010 C   0  0  2  0  0  0  0  0  0  0  0  0
   -3.2840   14.4000    1.3250 N   0  0  0  0  0  0  0  0  0  0  0  0
   -3.0110   14.6380   -1.4260 C   0  0  2  0  0  0  0  0  0  0  0  0
   -5.2280   14.6840   -2.0090 N   0  0  0  0  0  0  0  0  0  0  0  0
   -1.9510   14.4980    0.7470 C   0  0  0  0  0  0  0  0  0  0  0  0
   -3.0430   14.1000   -2.7620 N   0  0  0  0  0  0  0  0  0  0  0  0
   -4.4090   14.3920   -3.1980 C   0  0  0  0  0  0  0  0  0  0  0  0
   -1.9140   14.1020   -0.6560 N   0  0  0  0  0  0  0  0  0  0  0  0
  1  2  3  0
  2  3  1  0
  3  4  1  0
  3  5  2  0
  4  6  2  0
  5  7  1  0
  6  7  1  0
  7  8  1  0
  8  9  1  0
  9 10  1  0
 11 10  1  1
 11 12  1  0
 11 13  1  0
 12 14  1  0
 12 15  1  6
 13 16  1  0
 14 17  1  6
 15 18  1  0
 17 18  1  0
 14 19  1  0
 16 19  1  0
M  END
>  <%Rank>  (1179) 
89.923664

>  <N_hits>  (1179) 
2

>  <submitter_name>  (1179) 
nan

>  <original SMILES>  (1179) 
nan

>  <∆G_unbound>  (1179) 
0.403735

>  <∆G_bound>  (1179) 
6.238071

>  <regarded>  (1179) 
mArh-x0962_2_B_α,4IQY_0_A_δ

>  <ref_pdb>  (1179) 
nan

>  <smiles>  (1179) 
N#Cc1cn(CCNC2NCNC3NCNC23)cn1

>  <submitter_email>  (1179) 
nan

>  <disregarded>  (1179) 


>  <LE>  (1179) 
0.30707

>  <submitter_institution>  (1179) 
nan

>  <ref_mols>  (1179) 
mArh-x0962_2_B,4IQY_0_A

>  <N_constrained_atoms>  (1179) 
17.0

>  <ref_url>  (1179) 
nan

>  <method>  (1179) 
nan

>  <comRMSD>  (1179) 
2.326238

>  <N_unconstrained_atoms>  (1179) 
2.0

>  <∆∆G>  (1179) 
5.834336

>  <runtime>  (1179) 
94.346068

>  <generation_date>  (1179) 
nan

$$$$
mArh-mac-137_0_A_α-MAC-189_0_A_α
     RDKit          3D

 19 20  0  0  0  0  0  0  0  0999 V2000
    6.1540   25.5500   15.6480 C   0  0  0  0  0  0  0  0  0  0  0  0
    5.5430   26.7320   16.1610 C   0  0  0  0  0  0  0  0  0  0  0  0
    6.1760   27.9860   16.1990 C   0  0  0  0  0  0  0  0  0  0  0  0
    5.4830   24.8520   14.9260 O   0  0  0  0  0  0  0  0  0  0  0  0
    4.2790   26.5240   16.5980 C   0  0  0  0  0  0  0  0  0  0  0  0
    3.5970   27.5820   17.0600 C   0  0  0  0  0  0  0  0  0  0  0  0
    5.4580   29.0870   16.6860 C   0  0  0  0  0  0  0  0  0  0  0  0
    4.1530   28.8540   17.0920 C   0  0  0  0  0  0  0  0  0  0  0  0
    3.1420   29.6390   17.5280 N   0  0  0  0  0  0  0  0  0  0  0  0
    2.5590   28.8370   16.7010 C   0  0  0  0  0  0  0  0  0  0  0  0
    3.4290   28.0340   16.0800 O   0  0  0  0  0  0  0  0  0  0  0  0
    1.2700   28.4220   16.1390 C   0  0  0  0  0  0  0  0  0  0  0  0
    1.3640   27.0900   15.6860 C   0  0  0  0  0  0  0  0  0  0  0  0
    0.0740   29.1170   16.0030 C   0  0  0  0  0  0  0  0  0  0  0  0
    0.2980   26.4420   15.1160 C   0  0  0  0  0  0  0  0  0  0  0  0
   -1.0180   28.4470   15.4140 C   0  0  0  0  0  0  0  0  0  0  0  0
   -0.9080   27.1090   14.9750 C   0  0  0  0  0  0  0  0  0  0  0  0
   -2.0660   26.3740   14.3550 C   0  0  0  0  0  0  0  0  0  0  0  0
   -1.8630   24.8690   14.4750 C   0  0  0  0  0  0  0  0  0  0  0  0
  1  2  1  0
  2  3  2  0
  1  4  2  0
  2  5  1  0
  5  6  2  0
  3  7  1  0
  6  8  1  0
  7  8  2  0
  8  9  1  0
  9 10  2  3
 10 11  1  0
 10 12  1  0
 12 13  2  0
 12 14  1  0
 13 15  1  0
 14 16  2  0
 15 17  2  0
 16 17  1  0
 17 18  1  0
 18 19  1  0
M  END
>  <%Rank>  (1180) 
90.0

>  <N_hits>  (1180) 
2

>  <submitter_name>  (1180) 
nan

>  <original SMILES>  (1180) 
nan

>  <∆G_unbound>  (1180) 
0.277995

>  <∆G_bound>  (1180) 
-1.31204

>  <regarded>  (1180) 
mArh-mac-137_0_A_α,MAC-189_0_A_α

>  <ref_pdb>  (1180) 
nan

>  <smiles>  (1180) 
CCc1ccc(C(O)=Nc2ccc(C=O)cc2)cc1

>  <submitter_email>  (1180) 
nan

>  <disregarded>  (1180) 


>  <LE>  (1180) 
-0.083686

>  <submitter_institution>  (1180) 
nan

>  <ref_mols>  (1180) 
mArh-mac-137_0_A,MAC-189_0_A

>  <N_constrained_atoms>  (1180) 
18.0

>  <ref_url>  (1180) 
nan

>  <method>  (1180) 
nan

>  <comRMSD>  (1180) 
2.616886

>  <N_unconstrained_atoms>  (1180) 
1.0

>  <∆∆G>  (1180) 
-1.590035

>  <runtime>  (1180) 
53.803346

>  <generation_date>  (1180) 
nan

$$$$
6WOJ_0_C_α-5CMS_0_G_γ
     RDKit          3D

 24 26  0  0  0  0  0  0  0  0999 V2000
   -1.3730   21.7690   -8.1330 C   0  0  0  0  0  0  0  0  0  0  0  0
   -2.6810   22.0880   -7.4810 C   0  0  2  0  0  0  0  0  0  0  0  0
   -3.7920   21.3510   -7.9250 O   0  0  0  0  0  0  0  0  0  0  0  0
   -3.2770   23.4680   -7.4930 C   0  0  1  0  0  0  0  0  0  0  0  0
   -3.9560   23.8540   -8.7020 O   0  0  0  0  0  0  0  0  0  0  0  0
   -4.5410   21.5750   -6.7450 C   0  0  2  0  0  0  0  0  0  0  0  0
   -4.2510   23.0820   -6.3850 C   0  0  2  0  0  0  0  0  0  0  0  0
   -3.9720   20.6260   -5.8130 O   0  0  0  0  0  0  0  0  0  0  0  0
   -5.4060   23.9590   -6.4510 O   0  0  0  0  0  0  0  0  0  0  0  0
   -2.9670   19.6700   -6.3750 C   0  0  0  0  0  0  0  0  0  0  0  0
   -1.8960   19.1460   -5.3790 C   0  0  0  0  0  0  0  0  0  0  0  0
   -1.6550   17.6270   -4.9960 C   0  0  0  0  0  0  0  0  0  0  0  0
   -2.6920   16.5090   -5.2950 C   0  0  0  0  0  0  0  0  0  0  0  0
   -3.1600   15.5150   -4.1560 C   0  0  0  0  0  0  0  0  0  0  0  0
   -2.7040   15.6060   -2.6590 C   0  0  2  0  0  0  0  0  0  0  0  0
   -1.4130   14.9870   -2.3730 N   0  0  0  0  0  0  0  0  0  0  0  0
   -3.6160   15.0850   -1.5960 N   0  0  0  0  0  0  0  0  0  0  0  0
   -1.4870   14.6430   -0.9690 C   0  0  2  0  0  0  0  0  0  0  0  0
   -2.7050   15.3650   -0.4710 C   0  0  2  0  0  0  0  0  0  0  0  0
   -0.3040   14.8820   -0.2090 N   0  0  0  0  0  0  0  0  0  0  0  0
   -2.9270   14.8570    0.9680 C   0  0  2  0  0  0  0  0  0  0  0  0
   -4.0200   15.5180    1.6640 N   0  0  0  0  0  0  0  0  0  0  0  0
   -0.5190   14.5300    1.1820 C   0  0  0  0  0  0  0  0  0  0  0  0
   -1.7220   15.1720    1.6970 N   0  0  0  0  0  0  0  0  0  0  0  0
  2  1  1  6
  2  3  1  0
  2  4  1  0
  4  5  1  6
  3  6  1  0
  4  7  1  0
  6  7  1  0
  6  8  1  1
  7  9  1  6
  8 10  1  0
 10 11  1  0
 11 12  1  0
 12 13  1  0
 13 14  1  0
 15 14  1  6
 15 16  1  0
 15 17  1  0
 18 16  1  6
 19 17  1  6
 18 19  1  0
 18 20  1  0
 19 21  1  0
 21 22  1  1
 20 23  1  0
 21 24  1  0
 23 24  1  0
M  END
>  <%Rank>  (1181) 
90.076336

>  <N_hits>  (1181) 
2

>  <submitter_name>  (1181) 
nan

>  <original SMILES>  (1181) 
nan

>  <∆G_unbound>  (1181) 
0.639202

>  <∆G_bound>  (1181) 
-9.195082

>  <regarded>  (1181) 
6WOJ_0_C_α,5CMS_0_G_γ

>  <ref_pdb>  (1181) 
nan

>  <smiles>  (1181) 
CC1OC(OCCCCCC2NC3NCNC(N)C3N2)C(O)C1O

>  <submitter_email>  (1181) 
nan

>  <disregarded>  (1181) 


>  <LE>  (1181) 
-0.409762

>  <submitter_institution>  (1181) 
nan

>  <ref_mols>  (1181) 
6WOJ_0_C,5CMS_0_G

>  <N_constrained_atoms>  (1181) 
19.0

>  <ref_url>  (1181) 
nan

>  <method>  (1181) 
nan

>  <comRMSD>  (1181) 
2.70129

>  <N_unconstrained_atoms>  (1181) 
5.0

>  <∆∆G>  (1181) 
-9.834284

>  <runtime>  (1181) 
49.462636

>  <generation_date>  (1181) 
nan

$$$$
6WOJ_0_B_α-4IQY_0_A_δ
     RDKit          3D

 24 26  0  0  0  0  0  0  0  0999 V2000
   -1.3380   22.5950   -7.9640 C   0  0  0  0  0  0  0  0  0  0  0  0
   -2.7690   22.6560   -7.5370 C   0  0  2  0  0  0  0  0  0  0  0  0
   -3.4710   21.4990   -7.7190 O   0  0  0  0  0  0  0  0  0  0  0  0
   -3.8050   23.7530   -7.8080 C   0  0  1  0  0  0  0  0  0  0  0  0
   -4.1560   24.0340   -9.1460 O   0  0  0  0  0  0  0  0  0  0  0  0
   -4.1190   21.9190   -6.5600 C   0  0  1  0  0  0  0  0  0  0  0  0
   -4.9860   23.0780   -7.0670 C   0  0  1  0  0  0  0  0  0  0  0  0
   -4.4820   20.7800   -5.8860 O   0  0  0  0  0  0  0  0  0  0  0  0
   -5.4620   24.0040   -6.0610 O   0  0  0  0  0  0  0  0  0  0  0  0
   -3.1350   20.3350   -5.5340 C   0  0  0  0  0  0  0  0  0  0  0  0
   -2.3450   19.3190   -6.4080 C   0  0  0  0  0  0  0  0  0  0  0  0
   -2.3680   17.7790   -6.1120 C   0  0  0  0  0  0  0  0  0  0  0  0
   -1.8540   17.2680   -4.7350 C   0  0  0  0  0  0  0  0  0  0  0  0
   -2.6180   16.0530   -4.0740 C   0  0  0  0  0  0  0  0  0  0  0  0
   -2.3860   15.6740   -2.5690 C   0  0  2  0  0  0  0  0  0  0  0  0
   -1.5560   14.5250   -2.3490 N   0  0  0  0  0  0  0  0  0  0  0  0
   -3.5410   15.4500   -1.6540 N   0  0  0  0  0  0  0  0  0  0  0  0
   -1.4670   14.6170   -0.9270 C   0  0  2  0  0  0  0  0  0  0  0  0
   -2.9100   14.7860   -0.4610 C   0  0  1  0  0  0  0  0  0  0  0  0
   -0.5450   15.6150   -0.5920 N   0  0  0  0  0  0  0  0  0  0  0  0
   -2.8600   15.6200    0.8290 C   0  0  1  0  0  0  0  0  0  0  0  0
   -4.0110   15.5070    1.7170 N   0  0  0  0  0  0  0  0  0  0  0  0
   -0.4740   15.7860    0.8050 C   0  0  0  0  0  0  0  0  0  0  0  0
   -1.6480   15.2700    1.5220 N   0  0  0  0  0  0  0  0  0  0  0  0
  2  1  1  6
  2  3  1  0
  2  4  1  0
  4  5  1  6
  3  6  1  0
  4  7  1  0
  6  7  1  0
  6  8  1  6
  7  9  1  1
  8 10  1  0
 10 11  1  0
 11 12  1  0
 12 13  1  0
 13 14  1  0
 15 14  1  6
 15 16  1  0
 15 17  1  0
 18 16  1  6
 19 17  1  6
 18 19  1  0
 18 20  1  0
 19 21  1  0
 21 22  1  1
 20 23  1  0
 21 24  1  0
 23 24  1  0
M  END
>  <%Rank>  (1182) 
90.152672

>  <N_hits>  (1182) 
2

>  <submitter_name>  (1182) 
nan

>  <original SMILES>  (1182) 
nan

>  <∆G_unbound>  (1182) 
0.639202

>  <∆G_bound>  (1182) 
-8.130778

>  <regarded>  (1182) 
6WOJ_0_B_α,4IQY_0_A_δ

>  <ref_pdb>  (1182) 
nan

>  <smiles>  (1182) 
CC1OC(OCCCCCC2NC3NCNC(N)C3N2)C(O)C1O

>  <submitter_email>  (1182) 
nan

>  <disregarded>  (1182) 


>  <LE>  (1182) 
-0.365416

>  <submitter_institution>  (1182) 
nan

>  <ref_mols>  (1182) 
6WOJ_0_B,4IQY_0_A

>  <N_constrained_atoms>  (1182) 
19.0

>  <ref_url>  (1182) 
nan

>  <method>  (1182) 
nan

>  <comRMSD>  (1182) 
2.732782

>  <N_unconstrained_atoms>  (1182) 
5.0

>  <∆∆G>  (1182) 
-8.76998

>  <runtime>  (1182) 
42.284884

>  <generation_date>  (1182) 
nan

$$$$
mArh-5cb5_M_1_M_γ-mArh-EU0906_0_A_α
     RDKit          3D

 18 19  0  0  0  0  0  0  0  0999 V2000
   -0.2970   12.3890   -3.7380 O   0  0  0  0  0  0  0  0  0  0  0  0
   -0.8750   13.6550   -3.9960 C   0  0  1  0  0  0  0  0  0  0  0  0
   -0.6680   14.6380   -2.8520 C   0  0  0  0  0  0  0  0  0  0  0  0
   -0.2610   14.3250   -5.2260 C   0  0  2  0  0  0  0  0  0  0  0  0
    0.7820   13.4460   -5.7490 O   0  0  0  0  0  0  0  0  0  0  0  0
   -0.3250   15.8960   -3.4220 O   0  0  0  0  0  0  0  0  0  0  0  0
    0.3510   15.6320   -4.6570 C   0  0  2  0  0  0  0  0  0  0  0  0
    0.1620   16.8920   -5.5000 C   0  0  0  0  0  0  0  0  0  0  0  0
    0.4890   12.1420   -6.3510 C   0  0  0  0  0  0  0  0  0  0  0  0
   -0.9590   11.8550   -6.8590 C   0  0  0  0  0  0  0  0  0  0  0  0
   -1.0860   10.8000   -7.9510 N   0  0  0  0  0  0  0  0  0  0  0  0
   -0.2890    9.6070   -7.5490 N   0  0  0  0  0  0  0  0  0  0  0  0
   -0.4740   11.2490   -9.2230 C   0  0  0  0  0  0  0  0  0  0  0  0
   -1.1480    8.5000   -7.1070 C   0  0  0  0  0  0  0  0  0  0  0  0
    0.1820   10.0430   -9.8830 C   0  0  2  0  0  0  0  0  0  0  0  0
    0.5490    9.1690   -8.6890 C   0  0  0  0  0  0  0  0  0  0  0  0
    1.3110   10.3940  -10.7480 N   0  0  0  0  0  0  0  0  0  0  0  0
   -0.3680    7.4780   -6.3050 C   0  0  0  0  0  0  0  0  0  0  0  0
  2  1  1  1
  2  3  1  0
  2  4  1  0
  4  5  1  1
  3  6  1  0
  4  7  1  0
  6  7  1  0
  7  8  1  6
  5  9  1  0
  9 10  1  0
 10 11  1  0
 11 12  1  0
 11 13  1  0
 12 14  1  0
 13 15  1  0
 12 16  1  0
 15 16  1  0
 15 17  1  1
 14 18  1  0
M  END
>  <%Rank>  (1183) 
90.229008

>  <N_hits>  (1183) 
2

>  <submitter_name>  (1183) 
nan

>  <original SMILES>  (1183) 
nan

>  <∆G_unbound>  (1183) 
0.27099

>  <∆G_bound>  (1183) 
-4.06563

>  <regarded>  (1183) 
mArh-5cb5_M_1_M_γ,mArh-EU0906_0_A_α

>  <ref_pdb>  (1183) 
nan

>  <smiles>  (1183) 
CCN1CC(N)CN1CCOC1C(O)COC1C

>  <submitter_email>  (1183) 
nan

>  <disregarded>  (1183) 


>  <LE>  (1183) 
-0.240923

>  <submitter_institution>  (1183) 
nan

>  <ref_mols>  (1183) 
mArh-5cb5_M_1_M,mArh-EU0906_0_A

>  <N_constrained_atoms>  (1183) 
16.0

>  <ref_url>  (1183) 
nan

>  <method>  (1183) 
nan

>  <comRMSD>  (1183) 
2.686054

>  <N_unconstrained_atoms>  (1183) 
2.0

>  <∆∆G>  (1183) 
-4.336619

>  <runtime>  (1183) 
31.179119

>  <generation_date>  (1183) 
nan

$$$$
mArh-2fav_B_0_B_δ-mArh-5cms_E_5_E_α
     RDKit          3D

 25 27  0  0  0  0  0  0  0  0999 V2000
   -4.2640   15.1470    1.3280 N   0  0  0  0  0  0  0  0  0  0  0  0
   -2.9130   15.2170    0.7870 C   0  0  2  0  0  0  0  0  0  0  0  0
   -2.8480   14.6580   -0.6370 C   0  0  2  0  0  0  0  0  0  0  0  0
   -2.0820   14.4020    1.6540 N   0  0  0  0  0  0  0  0  0  0  0  0
   -1.4100   14.7170   -1.0190 C   0  0  2  0  0  0  0  0  0  0  0  0
   -3.4500   15.4640   -1.7140 N   0  0  0  0  0  0  0  0  0  0  0  0
   -0.6760   14.2690    1.1900 C   0  0  0  0  0  0  0  0  0  0  0  0
   -1.4710   14.3990   -2.4320 N   0  0  0  0  0  0  0  0  0  0  0  0
   -2.5160   15.3580   -2.8480 C   0  0  1  0  0  0  0  0  0  0  0  0
   -0.5620   13.9110   -0.2170 N   0  0  0  0  0  0  0  0  0  0  0  0
   -3.2910   14.9700   -4.1220 C   0  0  0  0  0  0  0  0  0  0  0  0
   -2.9530   15.7880   -5.3830 C   0  0  0  0  0  0  0  0  0  0  0  0
   -1.8440   16.8390   -5.2450 C   0  0  0  0  0  0  0  0  0  0  0  0
   -1.9010   17.9720   -6.2730 C   0  0  0  0  0  0  0  0  0  0  0  0
   -1.2830   19.2410   -5.7220 C   0  0  0  0  0  0  0  0  0  0  0  0
   -1.8760   20.5930   -6.1500 C   0  0  0  0  0  0  0  0  0  0  0  0
   -2.6080   20.6300   -7.4660 C   0  0  0  0  0  0  0  0  0  0  0  0
   -3.3440   21.9230   -7.8210 C   0  0  2  0  0  0  0  0  0  0  0  0
   -4.7630   21.9740   -8.0670 O   0  0  0  0  0  0  0  0  0  0  0  0
   -2.9170   22.3530   -9.1340 C   0  0  1  0  0  0  0  0  0  0  0  0
   -3.3270   21.5440  -10.2130 O   0  0  0  0  0  0  0  0  0  0  0  0
   -4.9320   23.0640   -9.0020 C   0  0  2  0  0  0  0  0  0  0  0  0
   -3.5920   23.6820   -9.1560 C   0  0  2  0  0  0  0  0  0  0  0  0
   -5.7480   24.0970   -8.5360 O   0  0  0  0  0  0  0  0  0  0  0  0
   -3.7510   24.4250  -10.3750 O   0  0  0  0  0  0  0  0  0  0  0  0
  2  1  1  1
  2  3  1  0
  2  4  1  0
  3  5  1  0
  3  6  1  6
  4  7  1  0
  5  8  1  6
  6  9  1  0
  8  9  1  0
  5 10  1  0
  7 10  1  0
  9 11  1  6
 11 12  1  0
 12 13  1  0
 13 14  1  0
 14 15  1  0
 15 16  1  0
 16 17  1  0
 18 17  1  6
 18 19  1  0
 18 20  1  0
 20 21  1  6
 19 22  1  0
 20 23  1  0
 22 23  1  0
 22 24  1  1
 23 25  1  6
M  END
>  <%Rank>  (1184) 
90.305344

>  <N_hits>  (1184) 
2

>  <submitter_name>  (1184) 
nan

>  <original SMILES>  (1184) 
nan

>  <∆G_unbound>  (1184) 
2.610404

>  <∆G_bound>  (1184) 
-4.099651

>  <regarded>  (1184) 
mArh-2fav_B_0_B_δ,mArh-5cms_E_5_E_α

>  <ref_pdb>  (1184) 
nan

>  <smiles>  (1184) 
NC1NCNC2NC(CCCCCCCC3OC(O)C(O)C3O)NC12

>  <submitter_email>  (1184) 
nan

>  <disregarded>  (1184) 


>  <LE>  (1184) 
-0.268402

>  <submitter_institution>  (1184) 
nan

>  <ref_mols>  (1184) 
mArh-2fav_B_0_B,mArh-5cms_E_5_E

>  <N_constrained_atoms>  (1184) 
19.0

>  <ref_url>  (1184) 
nan

>  <method>  (1184) 
nan

>  <comRMSD>  (1184) 
2.766144

>  <N_unconstrained_atoms>  (1184) 
6.0

>  <∆∆G>  (1184) 
-6.710056

>  <runtime>  (1184) 
40.537122

>  <generation_date>  (1184) 
nan

$$$$
5CB5_0_B_γ-mArh-EU0906_0_A_α
     RDKit          3D

 18 19  0  0  0  0  0  0  0  0999 V2000
   -1.2260   12.5370   -3.9050 O   0  0  0  0  0  0  0  0  0  0  0  0
   -1.1260   13.9400   -4.0810 C   0  0  1  0  0  0  0  0  0  0  0  0
   -0.5710   14.6330   -2.8530 C   0  0  0  0  0  0  0  0  0  0  0  0
   -0.1270   14.2870   -5.1790 C   0  0  2  0  0  0  0  0  0  0  0  0
    0.7800   13.1550   -5.2780 O   0  0  0  0  0  0  0  0  0  0  0  0
    0.0780   15.8190   -3.3090 O   0  0  0  0  0  0  0  0  0  0  0  0
    0.5600   15.5800   -4.6510 C   0  0  2  0  0  0  0  0  0  0  0  0
    0.2440   16.8610   -5.4230 C   0  0  0  0  0  0  0  0  0  0  0  0
    0.5580   12.1040   -6.2800 C   0  0  0  0  0  0  0  0  0  0  0  0
   -0.8960   11.8410   -6.7890 C   0  0  0  0  0  0  0  0  0  0  0  0
   -1.0530   10.8000   -7.8970 N   0  0  0  0  0  0  0  0  0  0  0  0
   -0.2760    9.5910   -7.5260 N   0  0  0  0  0  0  0  0  0  0  0  0
   -0.4480   11.2610   -9.1660 C   0  0  0  0  0  0  0  0  0  0  0  0
   -1.1480    8.4920   -7.0880 C   0  0  0  0  0  0  0  0  0  0  0  0
    0.1710   10.0530   -9.8590 C   0  0  2  0  0  0  0  0  0  0  0  0
    0.5430    9.1590   -8.6840 C   0  0  0  0  0  0  0  0  0  0  0  0
    1.2970   10.3880  -10.7390 N   0  0  0  0  0  0  0  0  0  0  0  0
   -0.3780    7.4540   -6.2960 C   0  0  0  0  0  0  0  0  0  0  0  0
  2  1  1  1
  2  3  1  0
  2  4  1  0
  4  5  1  1
  3  6  1  0
  4  7  1  0
  6  7  1  0
  7  8  1  6
  5  9  1  0
  9 10  1  0
 10 11  1  0
 11 12  1  0
 11 13  1  0
 12 14  1  0
 13 15  1  0
 12 16  1  0
 15 16  1  0
 15 17  1  1
 14 18  1  0
M  END
>  <%Rank>  (1185) 
90.381679

>  <N_hits>  (1185) 
2

>  <submitter_name>  (1185) 
nan

>  <original SMILES>  (1185) 
nan

>  <∆G_unbound>  (1185) 
0.27099

>  <∆G_bound>  (1185) 
-4.205732

>  <regarded>  (1185) 
5CB5_0_B_γ,mArh-EU0906_0_A_α

>  <ref_pdb>  (1185) 
nan

>  <smiles>  (1185) 
CCN1CC(N)CN1CCOC1C(O)COC1C

>  <submitter_email>  (1185) 
nan

>  <disregarded>  (1185) 


>  <LE>  (1185) 
-0.248707

>  <submitter_institution>  (1185) 
nan

>  <ref_mols>  (1185) 
5CB5_0_B,mArh-EU0906_0_A

>  <N_constrained_atoms>  (1185) 
16.0

>  <ref_url>  (1185) 
nan

>  <method>  (1185) 
nan

>  <comRMSD>  (1185) 
2.862823

>  <N_unconstrained_atoms>  (1185) 
2.0

>  <∆∆G>  (1185) 
-4.476722

>  <runtime>  (1185) 
28.946738

>  <generation_date>  (1185) 
nan

$$$$
mArh-5mqx_0_A_α-5CMS_0_M_δ
     RDKit          3D

 23 25  0  0  0  0  0  0  0  0999 V2000
   -5.4760   15.8330   -6.7530 C   0  0  0  0  0  0  0  0  0  0  0  0
   -6.9140   15.8920   -7.2110 C   0  0  2  0  0  0  0  0  0  0  0  0
   -7.1640   14.7830   -8.0040 O   0  0  0  0  0  0  0  0  0  0  0  0
   -7.7290   16.9490   -7.9840 C   0  0  1  0  0  0  0  0  0  0  0  0
   -7.6490   17.1660   -9.3930 O   0  0  0  0  0  0  0  0  0  0  0  0
   -8.4870   14.7340   -7.5420 C   0  0  2  0  0  0  0  0  0  0  0  0
   -9.0250   16.1720   -7.7880 C   0  0  2  0  0  0  0  0  0  0  0  0
   -8.4110   14.5020   -6.1120 O   0  0  0  0  0  0  0  0  0  0  0  0
   -9.8680   16.3970   -8.9140 O   0  0  0  0  0  0  0  0  0  0  0  0
   -7.2710   13.7110   -5.6690 C   0  0  0  0  0  0  0  0  0  0  0  0
   -6.7880   14.1870   -4.2730 C   0  0  0  0  0  0  0  0  0  0  0  0
   -5.4890   13.5830   -3.6820 C   0  0  0  0  0  0  0  0  0  0  0  0
   -4.1740   14.3470   -3.9980 C   0  0  0  0  0  0  0  0  0  0  0  0
   -3.4450   15.0350   -2.8090 C   0  0  2  0  0  0  0  0  0  0  0  0
   -2.1900   14.3460   -2.4690 N   0  0  0  0  0  0  0  0  0  0  0  0
   -4.2080   15.1170   -1.5470 N   0  0  0  0  0  0  0  0  0  0  0  0
   -1.9090   14.9240   -1.1800 C   0  0  1  0  0  0  0  0  0  0  0  0
   -3.2290   14.6960   -0.5060 C   0  0  1  0  0  0  0  0  0  0  0  0
   -0.8240   14.3130   -0.4610 N   0  0  0  0  0  0  0  0  0  0  0  0
   -3.0970   15.5010    0.7870 C   0  0  1  0  0  0  0  0  0  0  0  0
   -4.2960   15.5130    1.6320 N   0  0  0  0  0  0  0  0  0  0  0  0
   -0.6960   14.9200    0.8680 C   0  0  0  0  0  0  0  0  0  0  0  0
   -1.9920   14.9990    1.5710 N   0  0  0  0  0  0  0  0  0  0  0  0
  2  1  1  6
  2  3  1  0
  2  4  1  0
  4  5  1  6
  3  6  1  0
  4  7  1  0
  6  7  1  0
  6  8  1  1
  7  9  1  6
  8 10  1  0
 10 11  1  0
 11 12  1  0
 12 13  1  0
 14 13  1  6
 14 15  1  0
 14 16  1  0
 17 15  1  6
 18 16  1  6
 17 18  1  0
 17 19  1  0
 18 20  1  0
 20 21  1  1
 19 22  1  0
 20 23  1  0
 22 23  1  0
M  END
>  <%Rank>  (1186) 
90.458015

>  <N_hits>  (1186) 
2

>  <submitter_name>  (1186) 
nan

>  <original SMILES>  (1186) 
nan

>  <∆G_unbound>  (1186) 
3.035656

>  <∆G_bound>  (1186) 
-0.855533

>  <regarded>  (1186) 
mArh-5mqx_0_A_α,5CMS_0_M_δ

>  <ref_pdb>  (1186) 
nan

>  <smiles>  (1186) 
CC1OC(OCCCCC2NC3NCNC(N)C3N2)C(O)C1O

>  <submitter_email>  (1186) 
nan

>  <disregarded>  (1186) 


>  <LE>  (1186) 
-0.169182

>  <submitter_institution>  (1186) 
nan

>  <ref_mols>  (1186) 
mArh-5mqx_0_A,5CMS_0_M

>  <N_constrained_atoms>  (1186) 
19.0

>  <ref_url>  (1186) 
nan

>  <method>  (1186) 
nan

>  <comRMSD>  (1186) 
2.994244

>  <N_unconstrained_atoms>  (1186) 
4.0

>  <∆∆G>  (1186) 
-3.891189

>  <runtime>  (1186) 
43.477119

>  <generation_date>  (1186) 
nan

$$$$
5CB5_0_F_α-mArh-5cb5_F_1_F_α
     RDKit          3D

 12 12  0  0  0  0  0  0  0  0999 V2000
   -1.8290   21.1900   -8.5680 C   0  0  0  0  0  0  0  0  0  0  0  0
   -3.1030   21.7110   -9.2170 C   0  0  2  0  0  0  0  0  0  0  0  0
   -3.2970   23.1800   -8.9910 C   0  0  1  0  0  0  0  0  0  0  0  0
   -4.2540   21.1560   -8.5980 O   0  0  0  0  0  0  0  0  0  0  0  0
   -4.2880   23.8030   -9.8160 O   0  0  0  0  0  0  0  0  0  0  0  0
   -3.7000   23.1720   -7.5610 C   0  0  2  0  0  0  0  0  0  0  0  0
   -4.2990   21.7630   -7.3270 C   0  0  1  0  0  0  0  0  0  0  0  0
   -4.5790   24.2410   -7.6280 O   0  0  0  0  0  0  0  0  0  0  0  0
   -5.6160   21.6740   -6.7640 O   0  0  0  0  0  0  0  0  0  0  0  0
   -5.1310   24.3320   -6.4060 C   0  0  1  0  0  0  0  0  0  0  0  0
   -4.5330   25.5820   -5.7860 C   0  0  0  0  0  0  0  0  0  0  0  0
   -6.4690   24.3600   -6.7120 O   0  0  0  0  0  0  0  0  0  0  0  0
  2  1  1  1
  2  3  1  0
  2  4  1  0
  3  5  1  6
  3  6  1  0
  4  7  1  0
  6  7  1  0
  6  8  1  6
  7  9  1  6
  8 10  1  0
 10 11  1  6
 10 12  1  0
M  END
>  <%Rank>  (1187) 
90.534351

>  <N_hits>  (1187) 
2

>  <submitter_name>  (1187) 
nan

>  <original SMILES>  (1187) 
nan

>  <∆G_unbound>  (1187) 
0.853867

>  <∆G_bound>  (1187) 
-3.981748

>  <regarded>  (1187) 
5CB5_0_F_α,mArh-5cb5_F_1_F_α

>  <ref_pdb>  (1187) 
nan

>  <smiles>  (1187) 
CC1OC(O)C(O[C@@H](C)O)C1O

>  <submitter_email>  (1187) 
nan

>  <disregarded>  (1187) 


>  <LE>  (1187) 
-0.402968

>  <submitter_institution>  (1187) 
nan

>  <ref_mols>  (1187) 
5CB5_0_F,mArh-5cb5_F_1_F

>  <N_constrained_atoms>  (1187) 
12.0

>  <ref_url>  (1187) 
nan

>  <method>  (1187) 
nan

>  <comRMSD>  (1187) 
3.108793

>  <N_unconstrained_atoms>  (1187) 
0.0

>  <∆∆G>  (1187) 
-4.835615

>  <runtime>  (1187) 
40.962274

>  <generation_date>  (1187) 
nan

$$$$
5LW0_0_A_α-mArh-x0282_0_A_α
     RDKit          3D

 30 32  0  0  0  0  0  0  0  0999 V2000
   -2.6460   21.6780   -8.6680 C   0  0  0  0  0  0  0  0  0  0  0  0
   -3.6820   22.7570   -8.4170 C   0  0  2  0  0  0  0  0  0  0  0  0
   -4.4140   22.2840   -7.2830 O   0  0  0  0  0  0  0  0  0  0  0  0
   -4.6950   23.0020   -9.5600 C   0  0  1  0  0  0  0  0  0  0  0  0
   -4.3400   22.2700  -10.7420 O   0  0  0  0  0  0  0  0  0  0  0  0
   -5.8040   22.4730   -7.5190 C   0  0  1  0  0  0  0  0  0  0  0  0
   -6.0170   22.4480   -9.0290 C   0  0  1  0  0  0  0  0  0  0  0  0
   -6.4830   21.4060   -6.8080 O   0  0  0  0  0  0  0  0  0  0  0  0
   -7.1530   23.1860   -9.4610 O   0  0  0  0  0  0  0  0  0  0  0  0
   -5.9250   21.5610   -5.5280 C   0  0  0  0  0  0  0  0  0  0  0  0
   -6.6920   21.1570   -4.0860 C   0  0  0  0  0  0  0  0  0  0  0  0
   -8.2430   19.4430   -2.8860 C   0  0  0  0  0  0  0  0  0  0  0  0
   -8.5430   17.9550   -2.1900 C   0  0  0  0  0  0  0  0  0  0  0  0
   -9.9650   17.4090   -2.3520 C   0  0  0  0  0  0  0  0  0  0  0  0
  -10.0800   16.0610   -1.6380 C   0  0  0  0  0  0  0  0  0  0  0  0
   -8.9410   15.8660   -0.6400 C   0  0  0  0  0  0  0  0  0  0  0  0
   -8.8660   14.4910   -0.2900 O   0  0  0  0  0  0  0  0  0  0  0  0
   -8.0480   14.2310    0.8430 C   0  0  0  0  0  0  0  0  0  0  0  0
   -6.6480   13.8010    0.3650 C   0  0  0  0  0  0  0  0  0  0  0  0
   -5.7450   13.5680    1.5850 C   0  0  0  0  0  0  0  0  0  0  0  0
   -6.0500   14.8060   -0.6430 C   0  0  0  0  0  0  0  0  0  0  0  0
   -4.3110   13.2500    1.1980 C   0  0  0  0  0  0  0  0  0  0  0  0
   -4.5410   14.6400   -0.8690 C   0  0  0  0  0  0  0  0  0  0  0  0
   -3.8060   14.3130    0.3550 N   0  0  0  0  0  0  0  0  0  0  0  0
   -2.4440   14.4530    0.2860 C   0  0  0  0  0  0  0  0  0  0  0  0
   -1.9210   14.5500   -0.9480 N   0  0  0  0  0  0  0  0  0  0  0  0
   -1.6810   14.4860    1.4130 N   0  0  0  0  0  0  0  0  0  0  0  0
   -0.5990   14.6880   -1.0670 C   0  0  0  0  0  0  0  0  0  0  0  0
   -0.3530   14.6210    1.2310 C   0  0  0  0  0  0  0  0  0  0  0  0
    0.2440   14.7320   -0.0020 C   0  0  0  0  0  0  0  0  0  0  0  0
  2  1  1  6
  2  3  1  0
  2  4  1  0
  4  5  1  6
  3  6  1  0
  4  7  1  0
  6  7  1  0
  6  8  1  1
  7  9  1  1
  8 10  1  0
 10 11  1  0
 11 12  1  0
 12 13  1  0
 13 14  1  0
 14 15  1  0
 15 16  1  0
 16 17  1  0
 17 18  1  0
 18 19  1  0
 19 20  1  0
 19 21  1  0
 20 22  1  0
 21 23  1  0
 22 24  1  0
 23 24  1  0
 24 25  1  0
 25 26  2  0
 25 27  1  0
 26 28  1  0
 27 29  2  0
 28 30  2  0
 29 30  1  0
M  END
>  <%Rank>  (1188) 
90.610687

>  <N_hits>  (1188) 
2

>  <submitter_name>  (1188) 
nan

>  <original SMILES>  (1188) 
nan

>  <∆G_unbound>  (1188) 
0.293222

>  <∆G_bound>  (1188) 
83.194593

>  <regarded>  (1188) 
5LW0_0_A_α,mArh-x0282_0_A_α

>  <ref_pdb>  (1188) 
nan

>  <smiles>  (1188) 
CC1OC(OCCCCCCCOCC2CCN(c3ncccn3)CC2)C(O)C1O

>  <submitter_email>  (1188) 
nan

>  <disregarded>  (1188) 


>  <LE>  (1188) 
2.763379

>  <submitter_institution>  (1188) 
nan

>  <ref_mols>  (1188) 
5LW0_0_A,mArh-x0282_0_A

>  <N_constrained_atoms>  (1188) 
23.0

>  <ref_url>  (1188) 
nan

>  <method>  (1188) 
nan

>  <comRMSD>  (1188) 
1.615683

>  <N_unconstrained_atoms>  (1188) 
7.0

>  <∆∆G>  (1188) 
82.90137

>  <runtime>  (1188) 
128.061558

>  <generation_date>  (1188) 
nan

$$$$
5CB5_0_F_α-mArh-5cb5_L_0_L_α
     RDKit          3D

 12 12  0  0  0  0  0  0  0  0999 V2000
   -1.8290   21.1890   -8.5690 C   0  0  0  0  0  0  0  0  0  0  0  0
   -3.1020   21.7100   -9.2190 C   0  0  2  0  0  0  0  0  0  0  0  0
   -3.2960   23.1780   -8.9890 C   0  0  1  0  0  0  0  0  0  0  0  0
   -4.2520   21.1550   -8.5960 O   0  0  0  0  0  0  0  0  0  0  0  0
   -4.2890   23.8030   -9.8130 O   0  0  0  0  0  0  0  0  0  0  0  0
   -3.7000   23.1720   -7.5590 C   0  0  2  0  0  0  0  0  0  0  0  0
   -4.2980   21.7610   -7.3250 C   0  0  1  0  0  0  0  0  0  0  0  0
   -4.5780   24.2390   -7.6270 O   0  0  0  0  0  0  0  0  0  0  0  0
   -5.6170   21.6760   -6.7640 O   0  0  0  0  0  0  0  0  0  0  0  0
   -5.1290   24.3320   -6.4030 C   0  0  1  0  0  0  0  0  0  0  0  0
   -4.5340   25.5830   -5.7860 C   0  0  0  0  0  0  0  0  0  0  0  0
   -6.4680   24.3600   -6.7100 O   0  0  0  0  0  0  0  0  0  0  0  0
  2  1  1  1
  2  3  1  0
  2  4  1  0
  3  5  1  6
  3  6  1  0
  4  7  1  0
  6  7  1  0
  6  8  1  6
  7  9  1  6
  8 10  1  0
 10 11  1  6
 10 12  1  0
M  END
>  <%Rank>  (1189) 
90.687023

>  <N_hits>  (1189) 
2

>  <submitter_name>  (1189) 
nan

>  <original SMILES>  (1189) 
nan

>  <∆G_unbound>  (1189) 
0.853867

>  <∆G_bound>  (1189) 
-3.96884

>  <regarded>  (1189) 
5CB5_0_F_α,mArh-5cb5_L_0_L_α

>  <ref_pdb>  (1189) 
nan

>  <smiles>  (1189) 
CC1OC(O)C(O[C@@H](C)O)C1O

>  <submitter_email>  (1189) 
nan

>  <disregarded>  (1189) 


>  <LE>  (1189) 
-0.401892

>  <submitter_institution>  (1189) 
nan

>  <ref_mols>  (1189) 
5CB5_0_F,mArh-5cb5_L_0_L

>  <N_constrained_atoms>  (1189) 
12.0

>  <ref_url>  (1189) 
nan

>  <method>  (1189) 
nan

>  <comRMSD>  (1189) 
3.136914

>  <N_unconstrained_atoms>  (1189) 
0.0

>  <∆∆G>  (1189) 
-4.822707

>  <runtime>  (1189) 
34.224144

>  <generation_date>  (1189) 
nan

$$$$
5CB5_0_F_α-mArh-5cb5_A_0_A_α
     RDKit          3D

 12 12  0  0  0  0  0  0  0  0999 V2000
   -1.8290   21.1890   -8.5690 C   0  0  0  0  0  0  0  0  0  0  0  0
   -3.1020   21.7100   -9.2190 C   0  0  2  0  0  0  0  0  0  0  0  0
   -3.2960   23.1780   -8.9890 C   0  0  1  0  0  0  0  0  0  0  0  0
   -4.2520   21.1550   -8.5960 O   0  0  0  0  0  0  0  0  0  0  0  0
   -4.2890   23.8030   -9.8130 O   0  0  0  0  0  0  0  0  0  0  0  0
   -3.7000   23.1720   -7.5590 C   0  0  2  0  0  0  0  0  0  0  0  0
   -4.2980   21.7610   -7.3250 C   0  0  1  0  0  0  0  0  0  0  0  0
   -4.5780   24.2390   -7.6270 O   0  0  0  0  0  0  0  0  0  0  0  0
   -5.6170   21.6760   -6.7640 O   0  0  0  0  0  0  0  0  0  0  0  0
   -5.1290   24.3320   -6.4030 C   0  0  1  0  0  0  0  0  0  0  0  0
   -4.5340   25.5830   -5.7860 C   0  0  0  0  0  0  0  0  0  0  0  0
   -6.4680   24.3600   -6.7100 O   0  0  0  0  0  0  0  0  0  0  0  0
  2  1  1  1
  2  3  1  0
  2  4  1  0
  3  5  1  6
  3  6  1  0
  4  7  1  0
  6  7  1  0
  6  8  1  6
  7  9  1  6
  8 10  1  0
 10 11  1  6
 10 12  1  0
M  END
>  <%Rank>  (1190) 
90.763359

>  <N_hits>  (1190) 
2

>  <submitter_name>  (1190) 
nan

>  <original SMILES>  (1190) 
nan

>  <∆G_unbound>  (1190) 
0.853867

>  <∆G_bound>  (1190) 
-3.96884

>  <regarded>  (1190) 
5CB5_0_F_α,mArh-5cb5_A_0_A_α

>  <ref_pdb>  (1190) 
nan

>  <smiles>  (1190) 
CC1OC(O)C(O[C@@H](C)O)C1O

>  <submitter_email>  (1190) 
nan

>  <disregarded>  (1190) 


>  <LE>  (1190) 
-0.401892

>  <submitter_institution>  (1190) 
nan

>  <ref_mols>  (1190) 
5CB5_0_F,mArh-5cb5_A_0_A

>  <N_constrained_atoms>  (1190) 
12.0

>  <ref_url>  (1190) 
nan

>  <method>  (1190) 
nan

>  <comRMSD>  (1190) 
3.167582

>  <N_unconstrained_atoms>  (1190) 
0.0

>  <∆∆G>  (1190) 
-4.822707

>  <runtime>  (1190) 
30.948381

>  <generation_date>  (1190) 
nan

$$$$
mArh-5l9k_A_0_A_α-mArh-x0926_0_A_α
     RDKit          3D

 23 24  0  0  0  0  0  0  0  0999 V2000
   -1.6890   21.5780   -8.4210 C   0  0  0  0  0  0  0  0  0  0  0  0
   -2.9000   22.0370   -7.6630 C   0  0  2  0  0  0  0  0  0  0  0  0
   -4.0320   21.2790   -8.0360 O   0  0  0  0  0  0  0  0  0  0  0  0
   -3.4630   23.4620   -7.7690 C   0  0  1  0  0  0  0  0  0  0  0  0
   -3.9460   23.7970   -9.0810 O   0  0  0  0  0  0  0  0  0  0  0  0
   -4.7340   21.6680   -6.8950 C   0  0  1  0  0  0  0  0  0  0  0  0
   -4.6610   23.2270   -6.8500 C   0  0  2  0  0  0  0  0  0  0  0  0
   -6.0620   21.1910   -6.6880 O   0  0  0  0  0  0  0  0  0  0  0  0
   -5.8980   23.8160   -7.3090 O   0  0  0  0  0  0  0  0  0  0  0  0
   -5.9480   21.6140   -5.4000 C   0  0  0  0  0  0  0  0  0  0  0  0
   -6.7160   21.1450   -4.0610 C   0  0  0  0  0  0  0  0  0  0  0  0
   -8.2780   19.4410   -2.8770 C   0  0  0  0  0  0  0  0  0  0  0  0
   -8.7150   18.3210   -1.6700 C   0  0  0  0  0  0  0  0  0  0  0  0
   -9.3310   16.9650   -2.0110 C   0  0  0  0  0  0  0  0  0  0  0  0
   -8.2740   15.8450   -2.0140 C   0  0  0  0  0  0  0  0  0  0  0  0
   -8.3510   14.9190   -0.8020 C   0  0  0  0  0  0  0  0  0  0  0  0
   -7.0980   14.8860   -0.0380 N   0  0  0  0  0  0  0  0  0  0  0  0
   -5.9140   15.0100   -0.5620 C   0  0  0  0  0  0  0  0  0  0  0  0
   -4.7450   14.9490    0.4570 C   0  0  0  0  0  0  0  0  0  0  0  0
   -5.5740   15.1880   -1.8980 N   0  0  0  0  0  0  0  0  0  0  0  0
   -4.3060   14.9130   -2.3480 N   0  0  0  0  0  0  0  0  0  0  0  0
   -3.3900   14.7820   -0.1630 C   0  0  0  0  0  0  0  0  0  0  0  0
   -3.2450   14.7730   -1.4920 C   0  0  0  0  0  0  0  0  0  0  0  0
  2  1  1  6
  2  3  1  0
  2  4  1  0
  4  5  1  6
  3  6  1  0
  4  7  1  0
  6  7  1  0
  6  8  1  6
  7  9  1  6
  8 10  1  0
 10 11  1  0
 11 12  1  0
 12 13  1  0
 13 14  1  0
 14 15  1  0
 15 16  1  0
 16 17  1  0
 17 18  2  3
 18 19  1  0
 18 20  1  0
 20 21  1  0
 19 22  1  0
 21 23  1  0
 22 23  2  0
M  END
>  <%Rank>  (1191) 
90.839695

>  <N_hits>  (1191) 
2

>  <submitter_name>  (1191) 
nan

>  <original SMILES>  (1191) 
nan

>  <∆G_unbound>  (1191) 
0.437979

>  <∆G_bound>  (1191) 
84.46006

>  <regarded>  (1191) 
mArh-5l9k_A_0_A_α,mArh-x0926_0_A_α

>  <ref_pdb>  (1191) 
nan

>  <smiles>  (1191) 
CC1OC(OCCCCCCCN=C2CC=CNN2)C(O)C1O

>  <submitter_email>  (1191) 
nan

>  <disregarded>  (1191) 


>  <LE>  (1191) 
3.653134

>  <submitter_institution>  (1191) 
nan

>  <ref_mols>  (1191) 
mArh-5l9k_A_0_A,mArh-x0926_0_A

>  <N_constrained_atoms>  (1191) 
16.0

>  <ref_url>  (1191) 
nan

>  <method>  (1191) 
nan

>  <comRMSD>  (1191) 
1.136149

>  <N_unconstrained_atoms>  (1191) 
7.0

>  <∆∆G>  (1191) 
84.022081

>  <runtime>  (1191) 
132.183024

>  <generation_date>  (1191) 
nan

$$$$
mArh-6woj_C_0_C_α-5CB5_0_M_α
     RDKit          3D

 12 12  0  0  0  0  0  0  0  0999 V2000
   -1.4080   21.8260   -7.7350 C   0  0  0  0  0  0  0  0  0  0  0  0
   -2.8830   22.0000   -8.0770 C   0  0  1  0  0  0  0  0  0  0  0  0
   -3.6630   21.1850   -7.1730 O   0  0  0  0  0  0  0  0  0  0  0  0
   -3.3700   23.4410   -7.9170 C   0  0  1  0  0  0  0  0  0  0  0  0
   -4.0720   23.8070   -9.1090 O   0  0  0  0  0  0  0  0  0  0  0  0
   -4.8230   21.9400   -6.8430 C   0  0  2  0  0  0  0  0  0  0  0  0
   -4.3380   23.3780   -6.7330 C   0  0  2  0  0  0  0  0  0  0  0  0
   -5.3780   21.4840   -5.6130 O   0  0  0  0  0  0  0  0  0  0  0  0
   -5.4540   24.2790   -6.8300 O   0  0  0  0  0  0  0  0  0  0  0  0
   -6.1190   24.2320   -8.1020 C   0  0  2  0  0  0  0  0  0  0  0  0
   -5.7890   25.4350   -8.9330 C   0  0  0  0  0  0  0  0  0  0  0  0
   -7.4830   24.3480   -7.9400 O   0  0  0  0  0  0  0  0  0  0  0  0
  2  1  1  1
  2  3  1  0
  2  4  1  0
  4  5  1  6
  3  6  1  0
  4  7  1  0
  6  7  1  0
  6  8  1  1
  7  9  1  6
  9 10  1  0
 10 11  1  6
 10 12  1  0
M  END
>  <%Rank>  (1192) 
90.916031

>  <N_hits>  (1192) 
2

>  <submitter_name>  (1192) 
nan

>  <original SMILES>  (1192) 
nan

>  <∆G_unbound>  (1192) 
0.47364

>  <∆G_bound>  (1192) 
-5.367157

>  <regarded>  (1192) 
mArh-6woj_C_0_C_α,5CB5_0_M_α

>  <ref_pdb>  (1192) 
nan

>  <smiles>  (1192) 
CC1OC(O)C(O[C@H](C)O)C1O

>  <submitter_email>  (1192) 
nan

>  <disregarded>  (1192) 


>  <LE>  (1192) 
-0.486733

>  <submitter_institution>  (1192) 
nan

>  <ref_mols>  (1192) 
mArh-6woj_C_0_C,5CB5_0_M

>  <N_constrained_atoms>  (1192) 
12.0

>  <ref_url>  (1192) 
nan

>  <method>  (1192) 
nan

>  <comRMSD>  (1192) 
3.379018

>  <N_unconstrained_atoms>  (1192) 
0.0

>  <∆∆G>  (1192) 
-5.840797

>  <runtime>  (1192) 
23.47828

>  <generation_date>  (1192) 
nan

$$$$
mArh-EU0860_0_A_β-4J4Z_0_A_α
     RDKit          3D

 30 31  0  0  0  0  0  0  0  0999 V2000
    1.2190    8.9070  -10.4280 N   0  0  0  0  0  0  0  0  0  0  0  0
    2.1640    9.1490  -11.4420 C   0  0  0  0  0  0  0  0  0  0  0  0
    3.1730    8.1970  -11.6460 C   0  0  0  0  0  0  0  0  0  0  0  0
    2.1390   10.3060  -12.2560 C   0  0  0  0  0  0  0  0  0  0  0  0
    1.0950   11.3890  -12.0980 C   0  0  0  0  0  0  0  0  0  0  0  0
    3.1250   10.4790  -13.2510 C   0  0  0  0  0  0  0  0  0  0  0  0
    4.1420    8.3800  -12.6330 C   0  0  0  0  0  0  0  0  0  0  0  0
    1.7430   12.7280  -11.7750 C   0  0  0  0  0  0  0  0  0  0  0  0
    4.1140    9.5170  -13.4270 C   0  0  0  0  0  0  0  0  0  0  0  0
    5.0530    9.7190  -14.3920 O   0  0  0  0  0  0  0  0  0  0  0  0
    0.8290   13.8460  -11.3410 C   0  0  0  0  0  0  0  0  0  0  0  0
    1.4160   15.4400  -11.0720 C   0  0  0  0  0  0  0  0  0  0  0  0
    0.6880   17.3200  -10.3650 C   0  0  0  0  0  0  0  0  0  0  0  0
    0.3880   18.4670   -8.9120 C   0  0  0  0  0  0  0  0  0  0  0  0
   -0.8460   18.9350   -8.1010 C   0  0  0  0  0  0  0  0  0  0  0  0
   -1.5570   17.9350   -7.3830 O   0  0  0  0  0  0  0  0  0  0  0  0
   -1.3050   17.7850   -5.7780 S   0  0  0  0  0  0  0  0  0  0  0  0
    0.2630   17.6310   -5.4360 O   0  0  0  0  0  0  0  0  0  0  0  0
   -1.9460   19.0150   -4.9430 O   0  0  0  0  0  0  0  0  0  0  0  0
   -2.1260   16.3020   -5.2110 C   0  0  0  0  0  0  0  0  0  0  0  0
   -1.1460   15.2400   -4.6930 C   0  0  0  0  0  0  0  0  0  0  0  0
   -1.7830   13.9360   -4.3550 N   0  0  0  0  0  0  0  0  0  0  0  0
   -2.2920   13.9460   -2.9620 C   0  0  0  0  0  0  0  0  0  0  0  0
   -0.8770   12.7720   -4.5740 C   0  0  0  0  0  0  0  0  0  0  0  0
   -2.9090   12.5840   -2.5330 C   0  0  0  0  0  0  0  0  0  0  0  0
   -1.3680   11.4200   -3.9820 C   0  0  0  0  0  0  0  0  0  0  0  0
   -2.7530   11.4510   -3.4880 N   0  0  0  0  0  0  0  0  0  0  0  0
   -3.1850   10.1710   -2.8670 C   0  0  0  0  0  0  0  0  0  0  0  0
   -3.5500    9.0390   -3.8580 C   0  0  0  0  0  0  0  0  0  0  0  0
   -4.0710    7.8660   -3.2150 O   0  0  0  0  0  0  0  0  0  0  0  0
  1  2  1  0
  2  3  2  0
  2  4  1  0
  4  5  1  0
  4  6  2  0
  3  7  1  0
  5  8  1  0
  6  9  1  0
  7  9  2  0
  9 10  1  0
  8 11  1  0
 11 12  1  0
 12 13  1  0
 13 14  1  0
 14 15  1  0
 15 16  1  0
 17 16  1  0
 17 18  1  0
 17 19  1  0
 17 20  1  0
 20 21  1  0
 21 22  1  0
 22 23  1  0
 22 24  1  0
 23 25  1  0
 24 26  1  0
 25 27  1  0
 26 27  1  0
 27 28  1  0
 28 29  1  0
 29 30  1  0
M  END
>  <%Rank>  (1193) 
90.992366

>  <N_hits>  (1193) 
2

>  <submitter_name>  (1193) 
nan

>  <original SMILES>  (1193) 
nan

>  <∆G_unbound>  (1193) 
1.082795

>  <∆G_bound>  (1193) 
79.834671

>  <regarded>  (1193) 
mArh-EU0860_0_A_β,4J4Z_0_A_α

>  <ref_pdb>  (1193) 
nan

>  <smiles>  (1193) 
Nc1ccc(O)cc1CCCCCCCOS(O)(O)CCN1CCN(CCO)CC1

>  <submitter_email>  (1193) 
nan

>  <disregarded>  (1193) 


>  <LE>  (1193) 
2.625063

>  <submitter_institution>  (1193) 
nan

>  <ref_mols>  (1193) 
mArh-EU0860_0_A,4J4Z_0_A

>  <N_constrained_atoms>  (1193) 
23.0

>  <ref_url>  (1193) 
nan

>  <method>  (1193) 
nan

>  <comRMSD>  (1193) 
2.036982

>  <N_unconstrained_atoms>  (1193) 
7.0

>  <∆∆G>  (1193) 
78.751877

>  <runtime>  (1193) 
111.319778

>  <generation_date>  (1193) 
nan

$$$$
mArh-EU0716_0_A_α-5CB5_0_R_α
     RDKit          3D

 29 30  0  0  0  0  0  0  0  0999 V2000
  -11.4430   16.5410    3.4860 C   0  0  0  0  0  0  0  0  0  0  0  0
  -10.9000   15.5800    2.4340 C   0  0  0  0  0  0  0  0  0  0  0  0
   -9.4040   15.7300    2.0950 C   0  0  1  0  0  0  0  0  0  0  0  0
   -8.4480   15.4510    3.2670 C   0  0  1  0  0  0  0  0  0  0  0  0
   -8.9220   14.8100    0.9490 C   0  0  1  0  0  0  0  0  0  0  0  0
   -8.9350   14.4240    4.3180 C   0  0  0  0  0  0  0  0  0  0  0  0
   -8.7380   15.5960   -0.3670 C   0  0  0  0  0  0  0  0  0  0  0  0
   -7.2110   14.9290    2.6310 N   0  0  0  0  0  0  0  0  0  0  0  0
   -7.6600   14.1020    1.4800 C   0  0  1  0  0  0  0  0  0  0  0  0
   -7.9870   14.2320    5.3130 N   0  0  0  0  0  0  0  0  0  0  0  0
  -10.0250   13.8530    4.2860 O   0  0  0  0  0  0  0  0  0  0  0  0
   -9.7350   16.3240   -0.7660 N   0  0  0  0  0  0  0  0  0  0  0  0
   -7.9010   12.6650    1.9270 C   0  0  0  0  0  0  0  0  0  0  0  0
   -7.4350   15.5030   -1.1410 C   0  0  0  0  0  0  0  0  0  0  0  0
   -7.9630   15.0550    6.4900 C   0  0  0  0  0  0  0  0  0  0  0  0
   -9.5470   17.0700   -2.0140 C   0  0  0  0  0  0  0  0  0  0  0  0
   -8.7260   18.3270   -1.6730 C   0  0  0  0  0  0  0  0  0  0  0  0
   -8.2780   19.4530   -2.8870 C   0  0  0  0  0  0  0  0  0  0  0  0
   -6.7040   21.1600   -4.0730 C   0  0  0  0  0  0  0  0  0  0  0  0
   -6.0120   21.5720   -5.5310 C   0  0  0  0  0  0  0  0  0  0  0  0
   -4.7340   20.9960   -5.4850 O   0  0  0  0  0  0  0  0  0  0  0  0
   -3.8140   21.8430   -6.0970 C   0  0  1  0  0  0  0  0  0  0  0  0
   -2.6790   21.1140   -6.5430 O   0  0  0  0  0  0  0  0  0  0  0  0
   -4.4840   22.4530   -7.3140 C   0  0  1  0  0  0  0  0  0  0  0  0
   -5.1220   23.7100   -7.0080 O   0  0  0  0  0  0  0  0  0  0  0  0
   -2.1390   21.8560   -7.6260 C   0  0  2  0  0  0  0  0  0  0  0  0
   -3.3270   22.5570   -8.3140 C   0  0  1  0  0  0  0  0  0  0  0  0
   -1.3460   20.8520   -8.4490 C   0  0  0  0  0  0  0  0  0  0  0  0
   -3.7180   21.9990   -9.5590 O   0  0  0  0  0  0  0  0  0  0  0  0
  1  2  1  0
  3  2  1  1
  3  4  1  0
  3  5  1  0
  4  6  1  1
  5  7  1  6
  4  8  1  0
  5  9  1  0
  8  9  1  0
  6 10  1  0
  6 11  2  0
  7 12  2  3
  9 13  1  1
  7 14  1  0
 10 15  1  0
 12 16  1  0
 16 17  1  0
 17 18  1  0
 18 19  1  0
 19 20  1  0
 20 21  1  0
 22 21  1  6
 22 23  1  0
 22 24  1  0
 24 25  1  1
 23 26  1  0
 24 27  1  0
 26 27  1  0
 26 28  1  6
 27 29  1  6
M  END
>  <%Rank>  (1194) 
91.068702

>  <N_hits>  (1194) 
2

>  <submitter_name>  (1194) 
nan

>  <original SMILES>  (1194) 
nan

>  <∆G_unbound>  (1194) 
0.334159

>  <∆G_bound>  (1194) 
83.942065

>  <regarded>  (1194) 
mArh-EU0716_0_A_α,5CB5_0_R_α

>  <ref_pdb>  (1194) 
nan

>  <smiles>  (1194) 
CCC1C(C(=O)NC)NC(C)C1C(C)=NCCCCCOC1OC(C)C(O)C1O

>  <submitter_email>  (1194) 
nan

>  <disregarded>  (1194) 


>  <LE>  (1194) 
2.883031

>  <submitter_institution>  (1194) 
nan

>  <ref_mols>  (1194) 
mArh-EU0716_0_A,5CB5_0_R

>  <N_constrained_atoms>  (1194) 
24.0

>  <ref_url>  (1194) 
nan

>  <method>  (1194) 
nan

>  <comRMSD>  (1194) 
2.056432

>  <N_unconstrained_atoms>  (1194) 
5.0

>  <∆∆G>  (1194) 
83.607906

>  <runtime>  (1194) 
101.570871

>  <generation_date>  (1194) 
nan

$$$$
mArh-EU0860_0_A_β-5CMS_0_E_β
     RDKit          3D

 23 23  0  0  0  0  0  0  0  0999 V2000
    2.4090    8.6350  -11.1760 N   0  0  0  0  0  0  0  0  0  0  0  0
    2.8910    9.3520  -12.2880 C   0  0  0  0  0  0  0  0  0  0  0  0
    3.7720    8.6570  -13.1110 C   0  0  0  0  0  0  0  0  0  0  0  0
    2.5500   10.6760  -12.5790 C   0  0  0  0  0  0  0  0  0  0  0  0
    1.6330   11.4620  -11.7290 C   0  0  0  0  0  0  0  0  0  0  0  0
    3.1320   11.2100  -13.7050 C   0  0  0  0  0  0  0  0  0  0  0  0
    4.3400    9.2080  -14.2320 C   0  0  0  0  0  0  0  0  0  0  0  0
    1.4880   12.8540  -12.3110 C   0  0  0  0  0  0  0  0  0  0  0  0
    4.0030   10.5300  -14.5280 C   0  0  0  0  0  0  0  0  0  0  0  0
    4.5740   11.0900  -15.6780 O   0  0  0  0  0  0  0  0  0  0  0  0
    0.8960   13.8820  -11.4270 C   0  0  0  0  0  0  0  0  0  0  0  0
    1.3660   15.4520  -11.0650 C   0  0  0  0  0  0  0  0  0  0  0  0
    0.7200   17.2940  -10.3730 C   0  0  0  0  0  0  0  0  0  0  0  0
    0.3650   18.4290   -9.0120 C   0  0  0  0  0  0  0  0  0  0  0  0
   -0.8380   18.5020   -8.4280 O   0  0  0  0  0  0  0  0  0  0  0  0
   -1.0020   19.3130   -7.1160 P   0  0  0  0  0  0  0  0  0  0  0  0
    0.4540   18.9130   -6.4690 O   0  0  0  0  0  0  0  0  0  0  0  0
   -2.3020   18.3850   -6.8380 O   0  0  0  0  0  0  0  0  0  0  0  0
   -1.2240   20.7080   -7.9550 O   0  0  0  0  0  0  0  0  0  0  0  0
   -2.0440   17.3980   -5.5480 P   0  0  0  0  0  0  0  0  0  0  0  0
   -0.5940   16.6320   -5.4130 O   0  0  0  0  0  0  0  0  0  0  0  0
   -2.7680   16.3530   -6.4090 O   0  0  0  0  0  0  0  0  0  0  0  0
   -1.6620   18.6280   -4.7150 O   0  0  0  0  0  0  0  0  0  0  0  0
  1  2  1  0
  2  3  2  0
  2  4  1  0
  4  5  1  0
  4  6  2  0
  3  7  1  0
  5  8  1  0
  6  9  1  0
  7  9  2  0
  9 10  1  0
  8 11  1  0
 11 12  1  0
 12 13  1  0
 13 14  1  0
 14 15  1  0
 15 16  1  0
 16 17  1  0
 16 18  1  0
 16 19  1  0
 18 20  1  0
 20 21  1  0
 20 22  1  0
 20 23  1  0
M  CHG  2  19  -1  22  -1
M  END
>  <%Rank>  (1195) 
91.145038

>  <N_hits>  (1195) 
2

>  <submitter_name>  (1195) 
nan

>  <original SMILES>  (1195) 
nan

>  <∆G_unbound>  (1195) 
0.445809

>  <∆G_bound>  (1195) 
89.425942

>  <regarded>  (1195) 
mArh-EU0860_0_A_β,5CMS_0_E_β

>  <ref_pdb>  (1195) 
nan

>  <smiles>  (1195) 
Nc1ccc(O)cc1CCCCCCO[PH]([O-])(O)O[PH]([O-])(O)O

>  <submitter_email>  (1195) 
nan

>  <disregarded>  (1195) 


>  <LE>  (1195) 
3.868701

>  <submitter_institution>  (1195) 
nan

>  <ref_mols>  (1195) 
mArh-EU0860_0_A,5CMS_0_E

>  <N_constrained_atoms>  (1195) 
17.0

>  <ref_url>  (1195) 
nan

>  <method>  (1195) 
nan

>  <comRMSD>  (1195) 
1.39877

>  <N_unconstrained_atoms>  (1195) 
6.0

>  <∆∆G>  (1195) 
88.980133

>  <runtime>  (1195) 
111.969291

>  <generation_date>  (1195) 
nan

$$$$
mArh-x0910_2_B_α-mArh-3ew5_A_0_A_α
     RDKit          3D

 21 21  0  0  0  0  0  0  0  0999 V2000
  -11.8230   20.9250   -2.6470 N   0  0  0  0  0  0  0  0  0  0  0  0
  -12.3330   21.5910   -1.5760 C   0  0  0  0  0  0  0  0  0  0  0  0
  -12.0030   22.8830   -1.2100 N   0  0  0  0  0  0  0  0  0  0  0  0
  -13.2120   21.1230   -0.7250 N   0  0  0  0  0  0  0  0  0  0  0  0
  -11.0700   23.7580   -1.8820 C   0  0  0  0  0  0  0  0  0  0  0  0
  -12.6750   23.2590   -0.1070 N   0  0  0  0  0  0  0  0  0  0  0  0
  -13.3920   22.1620    0.1440 C   0  0  0  0  0  0  0  0  0  0  0  0
  -10.2660   22.9270   -2.8740 C   0  0  0  0  0  0  0  0  0  0  0  0
   -8.1220   23.1060   -3.1280 C   0  0  0  0  0  0  0  0  0  0  0  0
   -6.7050   21.9000   -4.2550 C   0  0  0  0  0  0  0  0  0  0  0  0
   -5.8690   22.1320   -5.6520 C   0  0  0  0  0  0  0  0  0  0  0  0
   -6.1670   21.5150   -6.8920 O   0  0  0  0  0  0  0  0  0  0  0  0
   -5.1430   22.0100   -7.8100 C   0  0  0  0  0  0  0  0  0  0  0  0
   -3.7190   22.0150   -7.1530 C   0  0  1  0  0  0  0  0  0  0  0  0
   -2.5680   21.5080   -8.0600 C   0  0  0  0  0  0  0  0  0  0  0  0
   -3.4060   23.3540   -6.7150 O   0  0  0  0  0  0  0  0  0  0  0  0
   -2.0480   20.2320   -7.6490 O   0  0  0  0  0  0  0  0  0  0  0  0
   -0.4700   19.8860   -7.6410 P   0  0  0  0  0  0  0  0  0  0  0  0
    0.4450   21.0550   -7.7520 O   0  0  0  0  0  0  0  0  0  0  0  0
   -0.1680   18.7710   -8.7570 O   0  0  0  0  0  0  0  0  0  0  0  0
   -0.2370   19.0340   -6.3140 O   0  0  0  0  0  0  0  0  0  0  0  0
  1  2  1  0
  2  3  1  0
  2  4  2  0
  3  5  1  0
  3  6  1  0
  4  7  1  0
  6  7  2  0
  5  8  1  0
  8  9  1  0
  9 10  1  0
 10 11  1  0
 11 12  1  0
 12 13  1  0
 13 14  1  0
 14 15  1  0
 14 16  1  6
 15 17  1  0
 17 18  1  0
 18 19  2  0
 18 20  1  0
 18 21  1  0
M  END
>  <%Rank>  (1196) 
91.221374

>  <N_hits>  (1196) 
2

>  <submitter_name>  (1196) 
nan

>  <original SMILES>  (1196) 
nan

>  <∆G_unbound>  (1196) 
1.605984

>  <∆G_bound>  (1196) 
99.417593

>  <regarded>  (1196) 
mArh-x0910_2_B_α,mArh-3ew5_A_0_A_α

>  <ref_pdb>  (1196) 
nan

>  <smiles>  (1196) 
Nc1ncnn1CCCCCOC[C@H](O)COP(=O)(O)O

>  <submitter_email>  (1196) 
nan

>  <disregarded>  (1196) 


>  <LE>  (1196) 
4.657696

>  <submitter_institution>  (1196) 
nan

>  <ref_mols>  (1196) 
mArh-x0910_2_B,mArh-3ew5_A_0_A

>  <N_constrained_atoms>  (1196) 
16.0

>  <ref_url>  (1196) 
nan

>  <method>  (1196) 
nan

>  <comRMSD>  (1196) 
1.002026

>  <N_unconstrained_atoms>  (1196) 
5.0

>  <∆∆G>  (1196) 
97.811609

>  <runtime>  (1196) 
119.809331

>  <generation_date>  (1196) 
nan

$$$$
mArh-5fud_A_0_A_α-mArh-EU0860_0_A_β
     RDKit          3D

 27 28  0  0  0  0  0  0  0  0999 V2000
   -3.2730   20.0830   -6.3000 O   0  0  0  0  0  0  0  0  0  0  0  0
   -1.8660   19.8470   -6.5030 S   0  0  0  0  0  0  0  0  0  0  0  0
   -1.0230   19.2160   -5.5150 O   0  0  0  0  0  0  0  0  0  0  0  0
   -1.6430   19.0690   -7.8910 O   0  0  0  0  0  0  0  0  0  0  0  0
   -1.1280   21.2710   -7.2630 C   0  0  0  0  0  0  0  0  0  0  0  0
   -2.0940   21.9660   -8.1850 C   0  0  0  0  0  0  0  0  0  0  0  0
   -0.5870   19.6210   -8.6610 C   0  0  0  0  0  0  0  0  0  0  0  0
    0.3140   18.4180   -8.8970 C   0  0  0  0  0  0  0  0  0  0  0  0
   -3.3220   22.4010   -7.5540 N   0  0  0  0  0  0  0  0  0  0  0  0
    0.6920   17.3290  -10.3680 C   0  0  0  0  0  0  0  0  0  0  0  0
   -4.4860   22.2110   -8.3970 C   0  0  0  0  0  0  0  0  0  0  0  0
   -3.2920   23.8300   -7.3170 C   0  0  0  0  0  0  0  0  0  0  0  0
    1.4130   15.4290  -11.0770 C   0  0  0  0  0  0  0  0  0  0  0  0
   -5.7310   22.4330   -7.5390 C   0  0  0  0  0  0  0  0  0  0  0  0
   -4.4440   24.2810   -6.4340 C   0  0  0  0  0  0  0  0  0  0  0  0
    0.8110   13.8310  -11.3870 C   0  0  0  0  0  0  0  0  0  0  0  0
   -5.7070   23.6130   -6.6810 O   0  0  0  0  0  0  0  0  0  0  0  0
    1.5260   12.7280  -12.1760 C   0  0  0  0  0  0  0  0  0  0  0  0
    1.5220   11.3820  -11.4610 C   0  0  0  0  0  0  0  0  0  0  0  0
    2.2200   10.3510  -12.2300 N   0  0  0  0  0  0  0  0  0  0  0  0
    3.0300   10.6380  -13.3330 C   0  0  0  0  0  0  0  0  0  0  0  0
    2.8420   11.7080  -14.2200 C   0  0  0  0  0  0  0  0  0  0  0  0
    4.1190    9.7890  -13.5750 C   0  0  0  0  0  0  0  0  0  0  0  0
    3.7050   11.9200  -15.3010 C   0  0  0  0  0  0  0  0  0  0  0  0
    4.9830    9.9950  -14.6520 C   0  0  0  0  0  0  0  0  0  0  0  0
    4.7700   11.0610  -15.5090 C   0  0  0  0  0  0  0  0  0  0  0  0
    5.6360   11.2300  -16.5500 O   0  0  0  0  0  0  0  0  0  0  0  0
  1  2  2  0
  2  3  2  0
  2  4  1  0
  2  5  1  0
  5  6  1  0
  4  7  1  0
  7  8  1  0
  6  9  1  0
  8 10  1  0
  9 11  1  0
  9 12  1  0
 10 13  1  0
 11 14  1  0
 12 15  1  0
 13 16  1  0
 14 17  1  0
 15 17  1  0
 16 18  1  0
 18 19  1  0
 19 20  1  0
 20 21  1  0
 21 22  2  0
 21 23  1  0
 22 24  1  0
 23 25  2  0
 24 26  2  0
 25 26  1  0
 26 27  1  0
M  END
>  <%Rank>  (1197) 
91.29771

>  <N_hits>  (1197) 
2

>  <submitter_name>  (1197) 
nan

>  <original SMILES>  (1197) 
nan

>  <∆G_unbound>  (1197) 
0.18001

>  <∆G_bound>  (1197) 
81.591908

>  <regarded>  (1197) 
mArh-5fud_A_0_A_α,mArh-EU0860_0_A_β

>  <ref_pdb>  (1197) 
nan

>  <smiles>  (1197) 
O=S(=O)(CCN1CCOCC1)OCCCCCCCNc1ccc(O)cc1

>  <submitter_email>  (1197) 
nan

>  <disregarded>  (1197) 


>  <LE>  (1197) 
3.015256

>  <submitter_institution>  (1197) 
nan

>  <ref_mols>  (1197) 
mArh-5fud_A_0_A,mArh-EU0860_0_A

>  <N_constrained_atoms>  (1197) 
20.0

>  <ref_url>  (1197) 
nan

>  <method>  (1197) 
nan

>  <comRMSD>  (1197) 
1.912891

>  <N_unconstrained_atoms>  (1197) 
7.0

>  <∆∆G>  (1197) 
81.411899

>  <runtime>  (1197) 
100.129705

>  <generation_date>  (1197) 
nan

$$$$
5LW0_0_A_α-5CMS_0_K_δ
     RDKit          3D

 24 26  0  0  0  0  0  0  0  0999 V2000
   -2.1010   21.2240   -8.7380 C   0  0  0  0  0  0  0  0  0  0  0  0
   -3.0950   22.2330   -8.2140 C   0  0  2  0  0  0  0  0  0  0  0  0
   -3.4060   21.8750   -6.8740 O   0  0  0  0  0  0  0  0  0  0  0  0
   -4.4530   22.3660   -8.8920 C   0  0  1  0  0  0  0  0  0  0  0  0
   -4.4960   22.0580  -10.2760 O   0  0  0  0  0  0  0  0  0  0  0  0
   -4.3960   20.9020   -6.9570 C   0  0  1  0  0  0  0  0  0  0  0  0
   -5.3400   21.4630   -8.0420 C   0  0  1  0  0  0  0  0  0  0  0  0
   -3.7520   19.7090   -7.3450 O   0  0  0  0  0  0  0  0  0  0  0  0
   -6.3260   22.3190   -7.4720 O   0  0  0  0  0  0  0  0  0  0  0  0
   -2.8040   19.0790   -6.4380 C   0  0  0  0  0  0  0  0  0  0  0  0
   -1.3300   18.7850   -6.6970 C   0  0  0  0  0  0  0  0  0  0  0  0
   -0.9480   17.5990   -5.7470 C   0  0  0  0  0  0  0  0  0  0  0  0
   -2.2460   16.8790   -5.2690 C   0  0  0  0  0  0  0  0  0  0  0  0
   -2.2600   15.5680   -4.4160 C   0  0  0  0  0  0  0  0  0  0  0  0
   -2.2150   15.6320   -2.8530 C   0  0  2  0  0  0  0  0  0  0  0  0
   -1.1000   14.8630   -2.3430 N   0  0  0  0  0  0  0  0  0  0  0  0
   -3.3770   15.2460   -1.9820 N   0  0  0  0  0  0  0  0  0  0  0  0
   -1.4920   14.4670   -1.0210 C   0  0  2  0  0  0  0  0  0  0  0  0
   -2.6720   15.3350   -0.6630 C   0  0  2  0  0  0  0  0  0  0  0  0
   -0.4170   14.4920   -0.1010 N   0  0  0  0  0  0  0  0  0  0  0  0
   -3.2300   14.7080    0.6440 C   0  0  2  0  0  0  0  0  0  0  0  0
   -4.2210   15.4850    1.3720 N   0  0  0  0  0  0  0  0  0  0  0  0
   -0.8390   15.0030    1.1720 C   0  0  0  0  0  0  0  0  0  0  0  0
   -2.1420   14.4860    1.5920 N   0  0  0  0  0  0  0  0  0  0  0  0
  2  1  1  6
  2  3  1  0
  2  4  1  0
  4  5  1  6
  3  6  1  0
  4  7  1  0
  6  7  1  0
  6  8  1  6
  7  9  1  1
  8 10  1  0
 10 11  1  0
 11 12  1  0
 12 13  1  0
 13 14  1  0
 15 14  1  6
 15 16  1  0
 15 17  1  0
 18 16  1  6
 19 17  1  6
 18 19  1  0
 18 20  1  0
 19 21  1  0
 21 22  1  1
 20 23  1  0
 21 24  1  0
 23 24  1  0
M  END
>  <%Rank>  (1198) 
91.374046

>  <N_hits>  (1198) 
2

>  <submitter_name>  (1198) 
nan

>  <original SMILES>  (1198) 
nan

>  <∆G_unbound>  (1198) 
0.639202

>  <∆G_bound>  (1198) 
-4.902544

>  <regarded>  (1198) 
5LW0_0_A_α,5CMS_0_K_δ

>  <ref_pdb>  (1198) 
nan

>  <smiles>  (1198) 
CC1OC(OCCCCCC2NC3NCNC(N)C3N2)C(O)C1O

>  <submitter_email>  (1198) 
nan

>  <disregarded>  (1198) 


>  <LE>  (1198) 
-0.230906

>  <submitter_institution>  (1198) 
nan

>  <ref_mols>  (1198) 
5LW0_0_A,5CMS_0_K

>  <N_constrained_atoms>  (1198) 
19.0

>  <ref_url>  (1198) 
nan

>  <method>  (1198) 
nan

>  <comRMSD>  (1198) 
3.625866

>  <N_unconstrained_atoms>  (1198) 
5.0

>  <∆∆G>  (1198) 
-5.541747

>  <runtime>  (1198) 
37.613008

>  <generation_date>  (1198) 
nan

$$$$
5L9K_0_B_α-mArh-EU0342_0_A_α
     RDKit          3D

 27 28  0  0  0  0  0  0  0  0999 V2000
   -1.3750   21.9760   -7.8000 C   0  0  0  0  0  0  0  0  0  0  0  0
   -2.8140   22.2170   -8.2200 C   0  0  1  0  0  0  0  0  0  0  0  0
   -3.6880   21.7680   -7.1790 O   0  0  0  0  0  0  0  0  0  0  0  0
   -3.1470   23.6970   -8.4090 C   0  0  1  0  0  0  0  0  0  0  0  0
   -4.2440   23.9670   -9.2800 O   0  0  0  0  0  0  0  0  0  0  0  0
   -4.2840   22.9410   -6.6020 C   0  0  1  0  0  0  0  0  0  0  0  0
   -3.4210   24.0850   -6.9990 C   0  0  2  0  0  0  0  0  0  0  0  0
   -5.5720   23.2000   -7.1480 O   0  0  0  0  0  0  0  0  0  0  0  0
   -4.1190   25.3360   -6.9050 O   0  0  0  0  0  0  0  0  0  0  0  0
   -5.9170   22.0560   -7.9080 C   0  0  0  0  0  0  0  0  0  0  0  0
   -5.8700   20.9090   -6.9350 C   0  0  0  0  0  0  0  0  0  0  0  0
   -5.8610   21.5550   -5.5010 C   0  0  0  0  0  0  0  0  0  0  0  0
   -6.6980   21.1390   -4.0850 C   0  0  0  0  0  0  0  0  0  0  0  0
   -8.2600   19.4170   -2.8620 C   0  0  0  0  0  0  0  0  0  0  0  0
   -8.6460   17.8860   -2.2520 C   0  0  0  0  0  0  0  0  0  0  0  0
   -9.4710   17.6240   -0.9880 C   0  0  0  0  0  0  0  0  0  0  0  0
   -9.0290   16.3940   -0.2840 N   0  0  0  0  0  0  0  0  0  0  0  0
   -7.9740   15.6560   -0.5550 C   0  0  0  0  0  0  0  0  0  0  0  0
   -7.7540   14.5660    0.2600 N   0  0  0  0  0  0  0  0  0  0  0  0
   -6.9610   15.8590   -1.6210 C   0  0  0  0  0  0  0  0  0  0  0  0
   -6.4010   14.3730    0.8130 C   0  0  0  0  0  0  0  0  0  0  0  0
   -5.7320   15.3470   -1.4700 C   0  0  0  0  0  0  0  0  0  0  0  0
   -5.2890   14.5490   -0.2570 C   0  0  1  0  0  0  0  0  0  0  0  0
   -4.0340   15.2040    0.3460 C   0  0  0  0  0  0  0  0  0  0  0  0
   -2.8730   14.4750    0.1440 N   0  0  0  0  0  0  0  0  0  0  0  0
   -4.0340   16.2730    0.9440 O   0  0  0  0  0  0  0  0  0  0  0  0
   -1.7960   14.5420    1.1030 C   0  0  0  0  0  0  0  0  0  0  0  0
  2  1  1  1
  2  3  1  0
  2  4  1  0
  4  5  1  6
  3  6  1  0
  4  7  1  0
  6  7  1  0
  6  8  1  6
  7  9  1  6
  8 10  1  0
 10 11  1  0
 11 12  1  0
 12 13  1  0
 13 14  1  0
 14 15  1  0
 15 16  1  0
 16 17  1  0
 17 18  2  3
 18 19  1  0
 18 20  1  0
 19 21  1  0
 20 22  2  0
 21 23  1  0
 22 23  1  0
 23 24  1  1
 24 25  1  0
 24 26  2  0
 25 27  1  0
M  END
>  <%Rank>  (1199) 
91.450382

>  <N_hits>  (1199) 
2

>  <submitter_name>  (1199) 
nan

>  <original SMILES>  (1199) 
nan

>  <∆G_unbound>  (1199) 
0.14181

>  <∆G_bound>  (1199) 
83.51696

>  <regarded>  (1199) 
5L9K_0_B_α,mArh-EU0342_0_A_α

>  <ref_pdb>  (1199) 
nan

>  <smiles>  (1199) 
CNC(=O)C1C=CC(=NCCCCCCCOC2OC(C)C(O)C2O)NC1

>  <submitter_email>  (1199) 
nan

>  <disregarded>  (1199) 


>  <LE>  (1199) 
3.087969

>  <submitter_institution>  (1199) 
nan

>  <ref_mols>  (1199) 
5L9K_0_B,mArh-EU0342_0_A

>  <N_constrained_atoms>  (1199) 
20.0

>  <ref_url>  (1199) 
nan

>  <method>  (1199) 
nan

>  <comRMSD>  (1199) 
2.045605

>  <N_unconstrained_atoms>  (1199) 
7.0

>  <∆∆G>  (1199) 
83.37515

>  <runtime>  (1199) 
183.388695

>  <generation_date>  (1199) 
nan

$$$$
mArh-EU0860_0_A_β-5CB5_0_I_β
     RDKit          3D

 23 23  0  0  0  0  0  0  0  0999 V2000
    2.6600    9.1780  -12.2200 N   0  0  0  0  0  0  0  0  0  0  0  0
    3.2400    9.9010  -13.2940 C   0  0  0  0  0  0  0  0  0  0  0  0
    4.5500    9.5750  -13.6250 C   0  0  0  0  0  0  0  0  0  0  0  0
    2.5590   10.8810  -13.9900 C   0  0  0  0  0  0  0  0  0  0  0  0
    1.1790   11.2270  -13.6600 C   0  0  0  0  0  0  0  0  0  0  0  0
    3.2530   11.5080  -15.0120 C   0  0  0  0  0  0  0  0  0  0  0  0
    5.2200   10.2060  -14.6480 C   0  0  0  0  0  0  0  0  0  0  0  0
    0.9930   11.4950  -12.1730 C   0  0  0  0  0  0  0  0  0  0  0  0
    4.5410   11.1960  -15.3450 C   0  0  0  0  0  0  0  0  0  0  0  0
    5.2370   11.8380  -16.3880 O   0  0  0  0  0  0  0  0  0  0  0  0
    1.6740   12.7200  -11.8130 C   0  0  0  0  0  0  0  0  0  0  0  0
    0.9060   13.8700  -11.3540 C   0  0  0  0  0  0  0  0  0  0  0  0
    1.3690   15.3900  -11.0850 C   0  0  0  0  0  0  0  0  0  0  0  0
    0.7470   17.2100  -10.4590 C   0  0  0  0  0  0  0  0  0  0  0  0
    0.5880   17.9350   -9.0580 O   0  0  0  0  0  0  0  0  0  0  0  0
   -0.1740   19.0820   -8.1300 P   0  0  0  0  0  0  0  0  0  0  0  0
    1.1110   19.7440   -7.3820 O   0  0  0  0  0  0  0  0  0  0  0  0
   -0.9620   17.9340   -7.3210 O   0  0  0  0  0  0  0  0  0  0  0  0
   -0.9370   19.8510   -9.3100 O   0  0  0  0  0  0  0  0  0  0  0  0
   -1.9950   18.6170   -6.2540 P   0  0  0  0  0  0  0  0  0  0  0  0
   -1.7430   18.3320   -4.6750 O   0  0  0  0  0  0  0  0  0  0  0  0
   -2.7660   17.3210   -6.5340 O   0  0  0  0  0  0  0  0  0  0  0  0
   -1.2340   19.9530   -6.3290 O   0  0  0  0  0  0  0  0  0  0  0  0
  1  2  1  0
  2  3  2  0
  2  4  1  0
  4  5  1  0
  4  6  2  0
  3  7  1  0
  5  8  1  0
  6  9  1  0
  7  9  2  0
  9 10  1  0
  8 11  1  0
 11 12  1  0
 12 13  1  0
 13 14  1  0
 14 15  1  0
 15 16  1  0
 16 17  1  0
 16 18  1  0
 16 19  1  0
 18 20  1  0
 20 21  1  0
 20 22  1  0
 20 23  1  0
M  CHG  2  19  -1  22  -1
M  END
>  <%Rank>  (1200) 
91.526718

>  <N_hits>  (1200) 
2

>  <submitter_name>  (1200) 
nan

>  <original SMILES>  (1200) 
nan

>  <∆G_unbound>  (1200) 
0.445809

>  <∆G_bound>  (1200) 
88.444727

>  <regarded>  (1200) 
mArh-EU0860_0_A_β,5CB5_0_I_β

>  <ref_pdb>  (1200) 
nan

>  <smiles>  (1200) 
Nc1ccc(O)cc1CCCCCCO[PH]([O-])(O)O[PH]([O-])(O)O

>  <submitter_email>  (1200) 
nan

>  <disregarded>  (1200) 


>  <LE>  (1200) 
3.82604

>  <submitter_institution>  (1200) 
nan

>  <ref_mols>  (1200) 
mArh-EU0860_0_A,5CB5_0_I

>  <N_constrained_atoms>  (1200) 
17.0

>  <ref_url>  (1200) 
nan

>  <method>  (1200) 
nan

>  <comRMSD>  (1200) 
1.644587

>  <N_unconstrained_atoms>  (1200) 
6.0

>  <∆∆G>  (1200) 
87.998918

>  <runtime>  (1200) 
123.957538

>  <generation_date>  (1200) 
nan

$$$$
mArh-3vfq_B_0_A_γ-mArh-5cms_N_13_N_γ
     RDKit          3D

 17 18  0  0  0  0  0  0  0  0999 V2000
   -4.4290   11.5470   -1.8170 O   0  0  0  0  0  0  0  0  0  0  0  0
   -4.4700   12.8940   -2.2560 C   0  0  1  0  0  0  0  0  0  0  0  0
   -4.1230   13.9300   -1.1880 C   0  0  0  0  0  0  0  0  0  0  0  0
   -3.3770   13.2420   -3.2450 C   0  0  1  0  0  0  0  0  0  0  0  0
   -3.4720   12.5210   -4.4590 O   0  0  0  0  0  0  0  0  0  0  0  0
   -3.6580   15.0980   -1.9110 O   0  0  0  0  0  0  0  0  0  0  0  0
   -3.7300   14.7150   -3.3000 C   0  0  1  0  0  0  0  0  0  0  0  0
   -3.0010   15.6750   -4.2440 C   0  0  0  0  0  0  0  0  0  0  0  0
   -1.6120   15.2840   -4.7600 C   0  0  0  0  0  0  0  0  0  0  0  0
   -0.4660   15.5870   -3.9000 N   0  0  0  0  0  0  0  0  0  0  0  0
   -0.0830   14.4640   -3.0560 C   0  0  0  0  0  0  0  0  0  0  0  0
    0.7580   15.7800   -4.6840 C   0  0  2  0  0  0  0  0  0  0  0  0
    0.7140   16.9490   -5.6720 C   0  0  0  0  0  0  0  0  0  0  0  0
    0.9590   14.3120   -5.1960 C   0  0  1  0  0  0  0  0  0  0  0  0
    0.3420   13.4410   -4.1090 C   0  0  1  0  0  0  0  0  0  0  0  0
    1.3400   12.5230   -3.6520 O   0  0  0  0  0  0  0  0  0  0  0  0
    0.3880   13.9060   -6.4090 O   0  0  0  0  0  0  0  0  0  0  0  0
  2  1  1  1
  2  3  1  0
  2  4  1  0
  4  5  1  6
  3  6  1  0
  4  7  1  0
  6  7  1  0
  7  8  1  6
  8  9  1  0
  9 10  1  0
 10 11  1  0
 10 12  1  0
 12 13  1  6
 12 14  1  0
 11 15  1  0
 14 15  1  0
 15 16  1  1
 14 17  1  6
M  END
>  <%Rank>  (1201) 
91.603053

>  <N_hits>  (1201) 
2

>  <submitter_name>  (1201) 
nan

>  <original SMILES>  (1201) 
nan

>  <∆G_unbound>  (1201) 
0.535292

>  <∆G_bound>  (1201) 
-3.536052

>  <regarded>  (1201) 
mArh-3vfq_B_0_A_γ,mArh-5cms_N_13_N_γ

>  <ref_pdb>  (1201) 
nan

>  <smiles>  (1201) 
CC1C(O)C(O)CN1CCC1OCC(O)C1O

>  <submitter_email>  (1201) 
nan

>  <disregarded>  (1201) 


>  <LE>  (1201) 
-0.239491

>  <submitter_institution>  (1201) 
nan

>  <ref_mols>  (1201) 
mArh-3vfq_B_0_A,mArh-5cms_N_13_N

>  <N_constrained_atoms>  (1201) 
16.0

>  <ref_url>  (1201) 
nan

>  <method>  (1201) 
nan

>  <comRMSD>  (1201) 
3.805409

>  <N_unconstrained_atoms>  (1201) 
1.0

>  <∆∆G>  (1201) 
-4.071344

>  <runtime>  (1201) 
25.403429

>  <generation_date>  (1201) 
nan

$$$$
5CB5_0_N_β-mArh-EU0860_0_A_β
     RDKit          3D

 23 23  0  0  0  0  0  0  0  0999 V2000
   -2.4620   20.4840   -7.4720 O   0  0  0  0  0  0  0  0  0  0  0  0
   -1.1690   19.4230   -7.3170 P   0  0  0  0  0  0  0  0  0  0  0  0
   -2.0960   18.3490   -6.7400 O   0  0  0  0  0  0  0  0  0  0  0  0
   -0.2550   20.6190   -7.6670 O   0  0  0  0  0  0  0  0  0  0  0  0
   -0.8050   18.4200   -8.4980 O   0  0  0  0  0  0  0  0  0  0  0  0
   -1.6040   17.4030   -5.5280 P   0  0  0  0  0  0  0  0  0  0  0  0
    0.4040   18.4290   -9.0030 C   0  0  0  0  0  0  0  0  0  0  0  0
   -0.0130   17.0770   -5.2480 O   0  0  0  0  0  0  0  0  0  0  0  0
   -2.7180   16.5540   -4.5740 O   0  0  0  0  0  0  0  0  0  0  0  0
   -1.7010   18.5640   -4.5460 O   0  0  0  0  0  0  0  0  0  0  0  0
    0.7120   17.2990  -10.3970 C   0  0  0  0  0  0  0  0  0  0  0  0
    1.4130   15.4210  -11.0730 C   0  0  0  0  0  0  0  0  0  0  0  0
    0.8420   13.8610  -11.3300 C   0  0  0  0  0  0  0  0  0  0  0  0
    1.7360   12.7650  -11.8290 C   0  0  0  0  0  0  0  0  0  0  0  0
    0.9460   11.5750  -12.2170 C   0  0  0  0  0  0  0  0  0  0  0  0
    1.6880   10.3800  -12.3840 N   0  0  0  0  0  0  0  0  0  0  0  0
    2.8920   10.2310  -13.1230 C   0  0  0  0  0  0  0  0  0  0  0  0
    3.2450   11.1590  -14.0690 C   0  0  0  0  0  0  0  0  0  0  0  0
    3.7160    9.1600  -12.9010 C   0  0  0  0  0  0  0  0  0  0  0  0
    4.4030   11.0210  -14.7870 C   0  0  0  0  0  0  0  0  0  0  0  0
    4.8690    9.0460  -13.6340 C   0  0  0  0  0  0  0  0  0  0  0  0
    5.2630    9.9510  -14.5940 C   0  0  0  0  0  0  0  0  0  0  0  0
    6.4440    9.8020  -15.3160 O   0  0  0  0  0  0  0  0  0  0  0  0
  1  2  1  0
  2  3  1  0
  2  4  1  0
  2  5  1  0
  3  6  1  0
  5  7  1  0
  6  8  1  0
  6  9  1  0
  6 10  1  0
  7 11  1  0
 11 12  1  0
 12 13  1  0
 13 14  1  0
 14 15  1  0
 15 16  1  0
 16 17  1  0
 17 18  2  0
 17 19  1  0
 18 20  1  0
 19 21  2  0
 20 22  2  0
 21 22  1  0
 22 23  1  0
M  CHG  2   4  -1   9  -1
M  END
>  <%Rank>  (1202) 
91.679389

>  <N_hits>  (1202) 
2

>  <submitter_name>  (1202) 
nan

>  <original SMILES>  (1202) 
nan

>  <∆G_unbound>  (1202) 
0.232545

>  <∆G_bound>  (1202) 
83.036828

>  <regarded>  (1202) 
5CB5_0_N_β,mArh-EU0860_0_A_β

>  <ref_pdb>  (1202) 
nan

>  <smiles>  (1202) 
[O-][PH](O)(O)O[PH]([O-])(O)OCCCCCCNc1ccc(O)cc1

>  <submitter_email>  (1202) 
nan

>  <disregarded>  (1202) 


>  <LE>  (1202) 
3.600186

>  <submitter_institution>  (1202) 
nan

>  <ref_mols>  (1202) 
5CB5_0_N,mArh-EU0860_0_A

>  <N_constrained_atoms>  (1202) 
17.0

>  <ref_url>  (1202) 
nan

>  <method>  (1202) 
nan

>  <comRMSD>  (1202) 
1.770221

>  <N_unconstrained_atoms>  (1202) 
6.0

>  <∆∆G>  (1202) 
82.804283

>  <runtime>  (1202) 
146.555272

>  <generation_date>  (1202) 
nan

$$$$
5CB5_0_G_γ-6MEA_0_B_α
     RDKit          3D

 21 22  0  0  0  0  0  0  0  0999 V2000
   -0.6930   12.4320   -3.9460 O   0  0  0  0  0  0  0  0  0  0  0  0
   -0.9720   13.8040   -4.1380 C   0  0  1  0  0  0  0  0  0  0  0  0
   -0.6730   14.6620   -2.9130 C   0  0  0  0  0  0  0  0  0  0  0  0
   -0.0500   14.4210   -5.1670 C   0  0  2  0  0  0  0  0  0  0  0  0
    1.2780   13.9440   -4.9570 O   0  0  0  0  0  0  0  0  0  0  0  0
   -0.1350   15.9070   -3.4040 O   0  0  0  0  0  0  0  0  0  0  0  0
   -0.3330   15.8830   -4.8250 C   0  0  1  0  0  0  0  0  0  0  0  0
    0.4480   17.0210   -5.4810 C   0  0  0  0  0  0  0  0  0  0  0  0
   -0.4350   18.0770   -6.1640 C   0  0  0  0  0  0  0  0  0  0  0  0
    0.2580   19.0050   -7.1710 C   0  0  0  0  0  0  0  0  0  0  0  0
   -0.4210   20.3800   -7.2340 C   0  0  0  0  0  0  0  0  0  0  0  0
   -1.6040   20.4870   -8.1610 C   0  0  0  0  0  0  0  0  0  0  0  0
   -2.1060   21.9120   -8.4150 C   0  0  0  0  0  0  0  0  0  0  0  0
   -3.2600   22.3710   -7.5450 C   0  0  2  0  0  0  0  0  0  0  0  0
   -4.2980   21.4140   -7.6740 O   0  0  0  0  0  0  0  0  0  0  0  0
   -3.9460   23.6950   -7.9150 C   0  0  1  0  0  0  0  0  0  0  0  0
   -4.1300   24.0080   -9.2850 O   0  0  0  0  0  0  0  0  0  0  0  0
   -5.4720   22.0230   -7.1530 C   0  0  2  0  0  0  0  0  0  0  0  0
   -5.3150   23.5400   -7.3080 C   0  0  1  0  0  0  0  0  0  0  0  0
   -5.6490   21.6650   -5.7930 O   0  0  0  0  0  0  0  0  0  0  0  0
   -5.4780   24.2840   -6.1220 O   0  0  0  0  0  0  0  0  0  0  0  0
  2  1  1  1
  2  3  1  0
  2  4  1  0
  4  5  1  1
  3  6  1  0
  4  7  1  0
  6  7  1  0
  7  8  1  6
  8  9  1  0
  9 10  1  0
 10 11  1  0
 11 12  1  0
 12 13  1  0
 14 13  1  6
 14 15  1  0
 14 16  1  0
 16 17  1  6
 15 18  1  0
 16 19  1  0
 18 19  1  0
 18 20  1  1
 19 21  1  1
M  END
>  <%Rank>  (1203) 
91.755725

>  <N_hits>  (1203) 
2

>  <submitter_name>  (1203) 
nan

>  <original SMILES>  (1203) 
nan

>  <∆G_unbound>  (1203) 
1.407194

>  <∆G_bound>  (1203) 
-12.574826

>  <regarded>  (1203) 
5CB5_0_G_γ,6MEA_0_B_α

>  <ref_pdb>  (1203) 
nan

>  <smiles>  (1203) 
OC1COC(CCCCCCC2OC(O)C(O)C2O)C1O

>  <submitter_email>  (1203) 
nan

>  <disregarded>  (1203) 


>  <LE>  (1203) 
-0.66581

>  <submitter_institution>  (1203) 
nan

>  <ref_mols>  (1203) 
5CB5_0_G,6MEA_0_B

>  <N_constrained_atoms>  (1203) 
17.0

>  <ref_url>  (1203) 
nan

>  <method>  (1203) 
nan

>  <comRMSD>  (1203) 
4.098134

>  <N_unconstrained_atoms>  (1203) 
4.0

>  <∆∆G>  (1203) 
-13.98202

>  <runtime>  (1203) 
47.192519

>  <generation_date>  (1203) 
nan

$$$$
mArh-5cms_L_11_L_γ-6MEA_0_A_α
     RDKit          3D

 21 22  0  0  0  0  0  0  0  0999 V2000
    0.4390   12.3710   -4.0840 O   0  0  0  0  0  0  0  0  0  0  0  0
   -0.1680   13.6530   -4.0610 C   0  0  1  0  0  0  0  0  0  0  0  0
    0.4540   14.5750   -3.0390 C   0  0  0  0  0  0  0  0  0  0  0  0
    0.0680   14.4200   -5.3480 C   0  0  2  0  0  0  0  0  0  0  0  0
    1.3220   14.0290   -5.8890 O   0  0  0  0  0  0  0  0  0  0  0  0
    0.1650   15.9100   -3.4720 O   0  0  0  0  0  0  0  0  0  0  0  0
   -0.1050   15.8860   -4.8900 C   0  0  1  0  0  0  0  0  0  0  0  0
    0.7580   16.9950   -5.5020 C   0  0  0  0  0  0  0  0  0  0  0  0
    0.0610   18.1690   -6.2100 C   0  0  0  0  0  0  0  0  0  0  0  0
   -1.3320   18.5360   -5.6680 C   0  0  0  0  0  0  0  0  0  0  0  0
   -2.1320   19.4570   -6.6080 C   0  0  0  0  0  0  0  0  0  0  0  0
   -1.3220   20.2690   -7.6390 C   0  0  0  0  0  0  0  0  0  0  0  0
   -1.7690   21.7410   -7.7820 C   0  0  0  0  0  0  0  0  0  0  0  0
   -3.2360   21.9680   -8.2120 C   0  0  1  0  0  0  0  0  0  0  0  0
   -4.0720   21.1340   -7.3820 O   0  0  0  0  0  0  0  0  0  0  0  0
   -3.7580   23.4130   -8.0210 C   0  0  1  0  0  0  0  0  0  0  0  0
   -4.5670   23.9120   -9.0830 O   0  0  0  0  0  0  0  0  0  0  0  0
   -5.1350   21.9410   -6.8850 C   0  0  2  0  0  0  0  0  0  0  0  0
   -4.5220   23.3090   -6.7090 C   0  0  2  0  0  0  0  0  0  0  0  0
   -5.5980   21.4860   -5.6260 O   0  0  0  0  0  0  0  0  0  0  0  0
   -5.5140   24.3150   -6.5170 O   0  0  0  0  0  0  0  0  0  0  0  0
  2  1  1  6
  2  3  1  0
  2  4  1  0
  4  5  1  1
  3  6  1  0
  4  7  1  0
  6  7  1  0
  7  8  1  6
  8  9  1  0
  9 10  1  0
 10 11  1  0
 11 12  1  0
 12 13  1  0
 14 13  1  1
 14 15  1  0
 14 16  1  0
 16 17  1  6
 15 18  1  0
 16 19  1  0
 18 19  1  0
 18 20  1  1
 19 21  1  6
M  END
>  <%Rank>  (1204) 
91.832061

>  <N_hits>  (1204) 
2

>  <submitter_name>  (1204) 
nan

>  <original SMILES>  (1204) 
nan

>  <∆G_unbound>  (1204) 
1.407194

>  <∆G_bound>  (1204) 
-13.061133

>  <regarded>  (1204) 
mArh-5cms_L_11_L_γ,6MEA_0_A_α

>  <ref_pdb>  (1204) 
nan

>  <smiles>  (1204) 
OC1COC(CCCCCCC2OC(O)C(O)C2O)C1O

>  <submitter_email>  (1204) 
nan

>  <disregarded>  (1204) 


>  <LE>  (1204) 
-0.688968

>  <submitter_institution>  (1204) 
nan

>  <ref_mols>  (1204) 
mArh-5cms_L_11_L,6MEA_0_A

>  <N_constrained_atoms>  (1204) 
17.0

>  <ref_url>  (1204) 
nan

>  <method>  (1204) 
nan

>  <comRMSD>  (1204) 
4.11391

>  <N_unconstrained_atoms>  (1204) 
4.0

>  <∆∆G>  (1204) 
-14.468327

>  <runtime>  (1204) 
48.246672

>  <generation_date>  (1204) 
nan

$$$$
5CB5_0_J_γ-mArh-6woj_D_0_D_α
     RDKit          3D

 21 22  0  0  0  0  0  0  0  0999 V2000
   -0.4660   12.3480   -3.8840 O   0  0  0  0  0  0  0  0  0  0  0  0
   -0.8770   13.6910   -4.0430 C   0  0  1  0  0  0  0  0  0  0  0  0
   -0.6310   14.5400   -2.8020 C   0  0  0  0  0  0  0  0  0  0  0  0
   -0.0660   14.4030   -5.1090 C   0  0  2  0  0  0  0  0  0  0  0  0
    1.2810   13.9350   -5.1050 O   0  0  0  0  0  0  0  0  0  0  0  0
   -0.1320   15.8110   -3.2480 O   0  0  0  0  0  0  0  0  0  0  0  0
   -0.3020   15.8430   -4.6720 C   0  0  1  0  0  0  0  0  0  0  0  0
    0.5720   16.9470   -5.2430 C   0  0  0  0  0  0  0  0  0  0  0  0
   -0.2130   18.1100   -5.8360 C   0  0  0  0  0  0  0  0  0  0  0  0
    0.5280   18.8410   -6.9460 C   0  0  0  0  0  0  0  0  0  0  0  0
   -0.4110   19.5790   -7.8970 C   0  0  0  0  0  0  0  0  0  0  0  0
   -0.7400   20.9810   -7.4110 C   0  0  0  0  0  0  0  0  0  0  0  0
   -1.7480   21.7330   -8.2610 C   0  0  0  0  0  0  0  0  0  0  0  0
   -2.9290   22.1840   -7.4340 C   0  0  2  0  0  0  0  0  0  0  0  0
   -4.0720   21.3570   -7.6070 O   0  0  0  0  0  0  0  0  0  0  0  0
   -3.4970   23.5800   -7.6500 C   0  0  1  0  0  0  0  0  0  0  0  0
   -4.1290   23.8830   -8.8920 O   0  0  0  0  0  0  0  0  0  0  0  0
   -5.0910   22.0750   -6.8930 C   0  0  2  0  0  0  0  0  0  0  0  0
   -4.4730   23.4250   -6.5150 C   0  0  2  0  0  0  0  0  0  0  0  0
   -5.4730   21.4210   -5.6910 O   0  0  0  0  0  0  0  0  0  0  0  0
   -5.4370   24.4490   -6.3910 O   0  0  0  0  0  0  0  0  0  0  0  0
  2  1  1  1
  2  3  1  0
  2  4  1  0
  4  5  1  1
  3  6  1  0
  4  7  1  0
  6  7  1  0
  7  8  1  6
  8  9  1  0
  9 10  1  0
 10 11  1  0
 11 12  1  0
 12 13  1  0
 14 13  1  6
 14 15  1  0
 14 16  1  0
 16 17  1  6
 15 18  1  0
 16 19  1  0
 18 19  1  0
 18 20  1  1
 19 21  1  6
M  END
>  <%Rank>  (1205) 
91.908397

>  <N_hits>  (1205) 
2

>  <submitter_name>  (1205) 
nan

>  <original SMILES>  (1205) 
nan

>  <∆G_unbound>  (1205) 
1.407194

>  <∆G_bound>  (1205) 
-12.653163

>  <regarded>  (1205) 
5CB5_0_J_γ,mArh-6woj_D_0_D_α

>  <ref_pdb>  (1205) 
nan

>  <smiles>  (1205) 
OC1COC(CCCCCCC2OC(O)C(O)C2O)C1O

>  <submitter_email>  (1205) 
nan

>  <disregarded>  (1205) 


>  <LE>  (1205) 
-0.669541

>  <submitter_institution>  (1205) 
nan

>  <ref_mols>  (1205) 
5CB5_0_J,mArh-6woj_D_0_D

>  <N_constrained_atoms>  (1205) 
17.0

>  <ref_url>  (1205) 
nan

>  <method>  (1205) 
nan

>  <comRMSD>  (1205) 
4.114678

>  <N_unconstrained_atoms>  (1205) 
4.0

>  <∆∆G>  (1205) 
-14.060357

>  <runtime>  (1205) 
43.649908

>  <generation_date>  (1205) 
nan

$$$$
5CB5_0_G_γ-mArh-2bfq_0_A_α
     RDKit          3D

 21 22  0  0  0  0  0  0  0  0999 V2000
   -0.7080   12.5180   -3.9540 O   0  0  0  0  0  0  0  0  0  0  0  0
   -0.9860   13.8880   -4.1530 C   0  0  1  0  0  0  0  0  0  0  0  0
   -0.6660   14.7590   -2.9450 C   0  0  0  0  0  0  0  0  0  0  0  0
   -0.0770   14.5070   -5.1940 C   0  0  2  0  0  0  0  0  0  0  0  0
    1.2570   14.0520   -4.9730 O   0  0  0  0  0  0  0  0  0  0  0  0
   -0.1720   16.0120   -3.4620 O   0  0  0  0  0  0  0  0  0  0  0  0
   -0.3900   15.9740   -4.8820 C   0  0  1  0  0  0  0  0  0  0  0  0
    0.3730   17.1400   -5.5420 C   0  0  0  0  0  0  0  0  0  0  0  0
   -0.4880   18.2300   -6.2360 C   0  0  0  0  0  0  0  0  0  0  0  0
    0.0860   18.7780   -7.5580 C   0  0  0  0  0  0  0  0  0  0  0  0
   -0.1350   20.2680   -7.8760 C   0  0  0  0  0  0  0  0  0  0  0  0
   -1.5550   20.7440   -8.1570 C   0  0  0  0  0  0  0  0  0  0  0  0
   -1.7500   22.2210   -7.7860 C   0  0  0  0  0  0  0  0  0  0  0  0
   -3.1490   22.5660   -7.2760 C   0  0  2  0  0  0  0  0  0  0  0  0
   -4.1010   21.5760   -7.6190 O   0  0  0  0  0  0  0  0  0  0  0  0
   -3.8370   23.8480   -7.7470 C   0  0  1  0  0  0  0  0  0  0  0  0
   -4.0290   24.0730   -9.1300 O   0  0  0  0  0  0  0  0  0  0  0  0
   -5.2450   22.1170   -6.9630 C   0  0  1  0  0  0  0  0  0  0  0  0
   -5.2000   23.6350   -7.1590 C   0  0  1  0  0  0  0  0  0  0  0  0
   -6.4280   21.6350   -7.5500 O   0  0  0  0  0  0  0  0  0  0  0  0
   -5.4250   24.3880   -5.9980 O   0  0  0  0  0  0  0  0  0  0  0  0
  2  1  1  1
  2  3  1  0
  2  4  1  0
  4  5  1  1
  3  6  1  0
  4  7  1  0
  6  7  1  0
  7  8  1  6
  8  9  1  0
  9 10  1  0
 10 11  1  0
 11 12  1  0
 12 13  1  0
 14 13  1  6
 14 15  1  0
 14 16  1  0
 16 17  1  6
 15 18  1  0
 16 19  1  0
 18 19  1  0
 18 20  1  6
 19 21  1  1
M  END
>  <%Rank>  (1206) 
91.984733

>  <N_hits>  (1206) 
2

>  <submitter_name>  (1206) 
nan

>  <original SMILES>  (1206) 
nan

>  <∆G_unbound>  (1206) 
1.407194

>  <∆G_bound>  (1206) 
-11.711958

>  <regarded>  (1206) 
5CB5_0_G_γ,mArh-2bfq_0_A_α

>  <ref_pdb>  (1206) 
nan

>  <smiles>  (1206) 
OC1COC(CCCCCCC2OC(O)C(O)C2O)C1O

>  <submitter_email>  (1206) 
nan

>  <disregarded>  (1206) 


>  <LE>  (1206) 
-0.624722

>  <submitter_institution>  (1206) 
nan

>  <ref_mols>  (1206) 
5CB5_0_G,mArh-2bfq_0_A

>  <N_constrained_atoms>  (1206) 
17.0

>  <ref_url>  (1206) 
nan

>  <method>  (1206) 
nan

>  <comRMSD>  (1206) 
4.108498

>  <N_unconstrained_atoms>  (1206) 
4.0

>  <∆∆G>  (1206) 
-13.119152

>  <runtime>  (1206) 
32.529342

>  <generation_date>  (1206) 
nan

$$$$
5CB5_0_C_γ-5CB5_0_L_α
     RDKit          3D

 21 22  0  0  0  0  0  0  0  0999 V2000
   -0.6190   12.5120   -3.8220 O   0  0  0  0  0  0  0  0  0  0  0  0
   -0.9700   13.8640   -4.0460 C   0  0  1  0  0  0  0  0  0  0  0  0
   -0.6790   14.7640   -2.8550 C   0  0  0  0  0  0  0  0  0  0  0  0
   -0.1070   14.4760   -5.1290 C   0  0  2  0  0  0  0  0  0  0  0  0
    1.2200   13.9660   -5.0230 O   0  0  0  0  0  0  0  0  0  0  0  0
   -0.1590   16.0020   -3.3800 O   0  0  0  0  0  0  0  0  0  0  0  0
   -0.3020   15.9620   -4.8100 C   0  0  1  0  0  0  0  0  0  0  0  0
    0.6590   16.9880   -5.4110 C   0  0  0  0  0  0  0  0  0  0  0  0
    0.0470   18.1880   -6.1600 C   0  0  0  0  0  0  0  0  0  0  0  0
   -1.4580   18.4220   -5.9390 C   0  0  0  0  0  0  0  0  0  0  0  0
   -1.9540   19.7740   -6.4960 C   0  0  0  0  0  0  0  0  0  0  0  0
   -1.1690   20.3180   -7.7040 C   0  0  0  0  0  0  0  0  0  0  0  0
   -1.8370   21.4840   -8.4730 C   0  0  0  0  0  0  0  0  0  0  0  0
   -3.0920   22.0940   -7.8490 C   0  0  2  0  0  0  0  0  0  0  0  0
   -4.2290   21.3320   -8.2150 O   0  0  0  0  0  0  0  0  0  0  0  0
   -3.5900   23.4710   -8.3020 C   0  0  1  0  0  0  0  0  0  0  0  0
   -3.8260   23.6240   -9.6900 O   0  0  0  0  0  0  0  0  0  0  0  0
   -5.2990   22.0160   -7.5560 C   0  0  2  0  0  0  0  0  0  0  0  0
   -4.9160   23.5050   -7.5510 C   0  0  2  0  0  0  0  0  0  0  0  0
   -5.4310   21.5500   -6.2140 O   0  0  0  0  0  0  0  0  0  0  0  0
   -5.8890   24.3040   -8.2300 O   0  0  0  0  0  0  0  0  0  0  0  0
  2  1  1  1
  2  3  1  0
  2  4  1  0
  4  5  1  1
  3  6  1  0
  4  7  1  0
  6  7  1  0
  7  8  1  6
  8  9  1  0
  9 10  1  0
 10 11  1  0
 11 12  1  0
 12 13  1  0
 14 13  1  6
 14 15  1  0
 14 16  1  0
 16 17  1  6
 15 18  1  0
 16 19  1  0
 18 19  1  0
 18 20  1  1
 19 21  1  6
M  END
>  <%Rank>  (1207) 
92.061069

>  <N_hits>  (1207) 
2

>  <submitter_name>  (1207) 
nan

>  <original SMILES>  (1207) 
nan

>  <∆G_unbound>  (1207) 
1.407194

>  <∆G_bound>  (1207) 
-11.28485

>  <regarded>  (1207) 
5CB5_0_C_γ,5CB5_0_L_α

>  <ref_pdb>  (1207) 
nan

>  <smiles>  (1207) 
OC1COC(CCCCCCC2OC(O)C(O)C2O)C1O

>  <submitter_email>  (1207) 
nan

>  <disregarded>  (1207) 


>  <LE>  (1207) 
-0.604383

>  <submitter_institution>  (1207) 
nan

>  <ref_mols>  (1207) 
5CB5_0_C,5CB5_0_L

>  <N_constrained_atoms>  (1207) 
17.0

>  <ref_url>  (1207) 
nan

>  <method>  (1207) 
nan

>  <comRMSD>  (1207) 
4.129794

>  <N_unconstrained_atoms>  (1207) 
4.0

>  <∆∆G>  (1207) 
-12.692044

>  <runtime>  (1207) 
34.616555

>  <generation_date>  (1207) 
nan

$$$$
5CMS_0_H_γ-mArh-5cb5_I_0_I_α
     RDKit          3D

 21 22  0  0  0  0  0  0  0  0999 V2000
   -0.8120   12.4020   -4.0270 O   0  0  0  0  0  0  0  0  0  0  0  0
   -0.9550   13.8060   -4.0180 C   0  0  1  0  0  0  0  0  0  0  0  0
   -0.4090   14.4830   -2.7640 C   0  0  0  0  0  0  0  0  0  0  0  0
   -0.0940   14.4410   -5.0860 C   0  0  2  0  0  0  0  0  0  0  0  0
    1.2040   13.8470   -5.0680 O   0  0  0  0  0  0  0  0  0  0  0  0
    0.1680   15.7310   -3.1990 O   0  0  0  0  0  0  0  0  0  0  0  0
   -0.2200   15.8690   -4.5780 C   0  0  1  0  0  0  0  0  0  0  0  0
    0.5700   16.9890   -5.2440 C   0  0  0  0  0  0  0  0  0  0  0  0
   -0.2890   18.0860   -5.8810 C   0  0  0  0  0  0  0  0  0  0  0  0
    0.4040   18.8890   -6.9910 C   0  0  0  0  0  0  0  0  0  0  0  0
   -0.5870   19.6140   -7.9050 C   0  0  0  0  0  0  0  0  0  0  0  0
   -1.1300   20.9400   -7.3690 C   0  0  0  0  0  0  0  0  0  0  0  0
   -1.9350   21.7320   -8.3980 C   0  0  0  0  0  0  0  0  0  0  0  0
   -3.2980   22.1750   -7.8930 C   0  0  2  0  0  0  0  0  0  0  0  0
   -4.3080   21.2860   -8.3080 O   0  0  0  0  0  0  0  0  0  0  0  0
   -3.9180   23.4610   -8.4080 C   0  0  1  0  0  0  0  0  0  0  0  0
   -4.0890   23.5510   -9.8120 O   0  0  0  0  0  0  0  0  0  0  0  0
   -5.4720   21.8520   -7.6870 C   0  0  2  0  0  0  0  0  0  0  0  0
   -5.2850   23.3590   -7.7530 C   0  0  1  0  0  0  0  0  0  0  0  0
   -5.5450   21.4490   -6.3210 O   0  0  0  0  0  0  0  0  0  0  0  0
   -5.3780   23.9880   -6.4840 O   0  0  0  0  0  0  0  0  0  0  0  0
  2  1  1  1
  2  3  1  0
  2  4  1  0
  4  5  1  1
  3  6  1  0
  4  7  1  0
  6  7  1  0
  7  8  1  6
  8  9  1  0
  9 10  1  0
 10 11  1  0
 11 12  1  0
 12 13  1  0
 14 13  1  6
 14 15  1  0
 14 16  1  0
 16 17  1  6
 15 18  1  0
 16 19  1  0
 18 19  1  0
 18 20  1  1
 19 21  1  1
M  END
>  <%Rank>  (1208) 
92.137405

>  <N_hits>  (1208) 
2

>  <submitter_name>  (1208) 
nan

>  <original SMILES>  (1208) 
nan

>  <∆G_unbound>  (1208) 
1.407194

>  <∆G_bound>  (1208) 
-11.604561

>  <regarded>  (1208) 
5CMS_0_H_γ,mArh-5cb5_I_0_I_α

>  <ref_pdb>  (1208) 
nan

>  <smiles>  (1208) 
OC1COC(CCCCCCC2OC(O)C(O)C2O)C1O

>  <submitter_email>  (1208) 
nan

>  <disregarded>  (1208) 


>  <LE>  (1208) 
-0.619607

>  <submitter_institution>  (1208) 
nan

>  <ref_mols>  (1208) 
5CMS_0_H,mArh-5cb5_I_0_I

>  <N_constrained_atoms>  (1208) 
17.0

>  <ref_url>  (1208) 
nan

>  <method>  (1208) 
nan

>  <comRMSD>  (1208) 
4.139522

>  <N_unconstrained_atoms>  (1208) 
4.0

>  <∆∆G>  (1208) 
-13.011755

>  <runtime>  (1208) 
40.854416

>  <generation_date>  (1208) 
nan

$$$$
mArh-6woj_A_0_A_γ-3VFQ_0_A_γ
     RDKit          3D

 17 18  0  0  0  0  0  0  0  0999 V2000
   -0.8720   12.6530   -4.9970 O   0  0  0  0  0  0  0  0  0  0  0  0
   -0.0230   13.4940   -4.2220 C   0  0  2  0  0  0  0  0  0  0  0  0
   -0.7320   14.6880   -3.5480 C   0  0  2  0  0  0  0  0  0  0  0  0
    0.9370   14.2210   -5.1620 C   0  0  2  0  0  0  0  0  0  0  0  0
    2.2600   13.8920   -4.7480 O   0  0  0  0  0  0  0  0  0  0  0  0
   -1.8540   15.3400   -4.3710 C   0  0  0  0  0  0  0  0  0  0  0  0
    0.2850   15.6780   -3.4820 O   0  0  0  0  0  0  0  0  0  0  0  0
    0.4600   15.6590   -4.8850 C   0  0  1  0  0  0  0  0  0  0  0  0
    1.1160   16.8980   -5.4090 C   0  0  0  0  0  0  0  0  0  0  0  0
   -3.2170   15.2810   -3.7290 C   0  0  0  0  0  0  0  0  0  0  0  0
   -3.2470   14.3940   -2.5140 C   0  0  1  0  0  0  0  0  0  0  0  0
   -4.1620   14.8520   -1.5050 O   0  0  0  0  0  0  0  0  0  0  0  0
   -3.4520   12.8880   -2.7110 C   0  0  2  0  0  0  0  0  0  0  0  0
   -3.3710   12.4450   -4.0560 O   0  0  0  0  0  0  0  0  0  0  0  0
   -4.7920   13.6720   -1.0050 C   0  0  0  0  0  0  0  0  0  0  0  0
   -4.8680   12.7430   -2.2040 C   0  0  2  0  0  0  0  0  0  0  0  0
   -5.1540   11.3900   -1.8940 O   0  0  0  0  0  0  0  0  0  0  0  0
  2  1  1  6
  2  3  1  0
  2  4  1  0
  4  5  1  1
  3  6  1  6
  3  7  1  0
  4  8  1  0
  7  8  1  0
  8  9  1  1
  6 10  1  0
 11 10  1  6
 11 12  1  0
 11 13  1  0
 13 14  1  6
 12 15  1  0
 13 16  1  0
 15 16  1  0
 16 17  1  1
M  END
>  <%Rank>  (1209) 
92.21374

>  <N_hits>  (1209) 
2

>  <submitter_name>  (1209) 
nan

>  <original SMILES>  (1209) 
nan

>  <∆G_unbound>  (1209) 
0.761905

>  <∆G_bound>  (1209) 
-2.196083

>  <regarded>  (1209) 
mArh-6woj_A_0_A_γ,3VFQ_0_A_γ

>  <ref_pdb>  (1209) 
nan

>  <smiles>  (1209) 
CC1OC(CCC2OCC(O)C2O)C(O)C1O

>  <submitter_email>  (1209) 
nan

>  <disregarded>  (1209) 


>  <LE>  (1209) 
-0.173999

>  <submitter_institution>  (1209) 
nan

>  <ref_mols>  (1209) 
mArh-6woj_A_0_A,3VFQ_0_A

>  <N_constrained_atoms>  (1209) 
16.0

>  <ref_url>  (1209) 
nan

>  <method>  (1209) 
nan

>  <comRMSD>  (1209) 
3.990816

>  <N_unconstrained_atoms>  (1209) 
1.0

>  <∆∆G>  (1209) 
-2.957989

>  <runtime>  (1209) 
26.741691

>  <generation_date>  (1209) 
nan

$$$$
5CB5_0_H_γ-5CB5_0_G_α
     RDKit          3D

 21 22  0  0  0  0  0  0  0  0999 V2000
   -0.6830   12.4600   -3.8630 O   0  0  0  0  0  0  0  0  0  0  0  0
   -1.0700   13.8220   -3.8670 C   0  0  1  0  0  0  0  0  0  0  0  0
   -0.5630   14.5970   -2.6570 C   0  0  0  0  0  0  0  0  0  0  0  0
   -0.4120   14.5360   -5.0240 C   0  0  2  0  0  0  0  0  0  0  0  0
    0.8650   13.9470   -5.2560 O   0  0  0  0  0  0  0  0  0  0  0  0
    0.0400   15.8090   -3.1490 O   0  0  0  0  0  0  0  0  0  0  0  0
   -0.4250   15.9660   -4.5010 C   0  0  1  0  0  0  0  0  0  0  0  0
    0.3910   17.0430   -5.2280 C   0  0  0  0  0  0  0  0  0  0  0  0
   -0.4590   18.0820   -5.9720 C   0  0  0  0  0  0  0  0  0  0  0  0
    0.2960   19.0060   -6.9420 C   0  0  0  0  0  0  0  0  0  0  0  0
   -0.4440   20.3400   -7.1530 C   0  0  0  0  0  0  0  0  0  0  0  0
   -1.6160   20.2760   -8.0820 C   0  0  0  0  0  0  0  0  0  0  0  0
   -2.1320   21.6300   -8.5930 C   0  0  0  0  0  0  0  0  0  0  0  0
   -3.3850   22.1890   -7.9210 C   0  0  2  0  0  0  0  0  0  0  0  0
   -4.4720   21.3570   -8.2680 O   0  0  0  0  0  0  0  0  0  0  0  0
   -3.9350   23.5330   -8.4090 C   0  0  1  0  0  0  0  0  0  0  0  0
   -3.9410   23.7100   -9.8160 O   0  0  0  0  0  0  0  0  0  0  0  0
   -5.6180   22.0020   -7.7220 C   0  0  2  0  0  0  0  0  0  0  0  0
   -5.3760   23.4980   -7.9010 C   0  0  1  0  0  0  0  0  0  0  0  0
   -5.7510   21.6930   -6.3340 O   0  0  0  0  0  0  0  0  0  0  0  0
   -5.5700   24.2360   -6.7010 O   0  0  0  0  0  0  0  0  0  0  0  0
  2  1  1  1
  2  3  1  0
  2  4  1  0
  4  5  1  1
  3  6  1  0
  4  7  1  0
  6  7  1  0
  7  8  1  6
  8  9  1  0
  9 10  1  0
 10 11  1  0
 11 12  1  0
 12 13  1  0
 14 13  1  6
 14 15  1  0
 14 16  1  0
 16 17  1  6
 15 18  1  0
 16 19  1  0
 18 19  1  0
 18 20  1  1
 19 21  1  1
M  END
>  <%Rank>  (1210) 
92.290076

>  <N_hits>  (1210) 
2

>  <submitter_name>  (1210) 
nan

>  <original SMILES>  (1210) 
nan

>  <∆G_unbound>  (1210) 
1.407194

>  <∆G_bound>  (1210) 
-11.15358

>  <regarded>  (1210) 
5CB5_0_H_γ,5CB5_0_G_α

>  <ref_pdb>  (1210) 
nan

>  <smiles>  (1210) 
OC1COC(CCCCCCC2OC(O)C(O)C2O)C1O

>  <submitter_email>  (1210) 
nan

>  <disregarded>  (1210) 


>  <LE>  (1210) 
-0.598132

>  <submitter_institution>  (1210) 
nan

>  <ref_mols>  (1210) 
5CB5_0_H,5CB5_0_G

>  <N_constrained_atoms>  (1210) 
17.0

>  <ref_url>  (1210) 
nan

>  <method>  (1210) 
nan

>  <comRMSD>  (1210) 
4.162601

>  <N_unconstrained_atoms>  (1210) 
4.0

>  <∆∆G>  (1210) 
-12.560774

>  <runtime>  (1210) 
40.075253

>  <generation_date>  (1210) 
nan

$$$$
mArh-5l9k_B_0_B_γ-6WOJ_0_A_α
     RDKit          3D

 21 22  0  0  0  0  0  0  0  0999 V2000
   -2.5600   12.9630   -4.6680 O   0  0  0  0  0  0  0  0  0  0  0  0
   -2.0300   14.2410   -4.4420 C   0  0  1  0  0  0  0  0  0  0  0  0
   -1.6420   14.6200   -3.0170 C   0  0  0  0  0  0  0  0  0  0  0  0
   -0.6710   14.4100   -5.0620 C   0  0  2  0  0  0  0  0  0  0  0  0
    0.2680   13.5130   -4.4660 O   0  0  0  0  0  0  0  0  0  0  0  0
   -0.6490   15.6630   -3.2000 O   0  0  0  0  0  0  0  0  0  0  0  0
   -0.5890   15.8560   -4.6280 C   0  0  1  0  0  0  0  0  0  0  0  0
    0.5870   16.7180   -5.0640 C   0  0  0  0  0  0  0  0  0  0  0  0
    0.2330   18.1480   -5.4950 C   0  0  0  0  0  0  0  0  0  0  0  0
   -0.8100   18.2460   -6.6280 C   0  0  0  0  0  0  0  0  0  0  0  0
   -1.4980   19.6160   -6.7450 C   0  0  0  0  0  0  0  0  0  0  0  0
   -0.8880   20.5270   -7.8170 C   0  0  0  0  0  0  0  0  0  0  0  0
   -1.8090   21.6300   -8.3720 C   0  0  0  0  0  0  0  0  0  0  0  0
   -2.8710   22.1680   -7.4240 C   0  0  2  0  0  0  0  0  0  0  0  0
   -3.9360   21.2480   -7.3120 O   0  0  0  0  0  0  0  0  0  0  0  0
   -3.5810   23.5200   -7.7130 C   0  0  1  0  0  0  0  0  0  0  0  0
   -3.8660   23.8730   -9.0580 O   0  0  0  0  0  0  0  0  0  0  0  0
   -4.7760   21.9480   -6.4140 C   0  0  1  0  0  0  0  0  0  0  0  0
   -4.9120   23.3450   -7.0050 C   0  0  1  0  0  0  0  0  0  0  0  0
   -6.0510   21.3640   -6.3370 O   0  0  0  0  0  0  0  0  0  0  0  0
   -5.2140   24.3490   -6.0450 O   0  0  0  0  0  0  0  0  0  0  0  0
  2  1  1  1
  2  3  1  0
  2  4  1  0
  4  5  1  1
  3  6  1  0
  4  7  1  0
  6  7  1  0
  7  8  1  1
  8  9  1  0
  9 10  1  0
 10 11  1  0
 11 12  1  0
 12 13  1  0
 14 13  1  6
 14 15  1  0
 14 16  1  0
 16 17  1  6
 15 18  1  0
 16 19  1  0
 18 19  1  0
 18 20  1  6
 19 21  1  1
M  END
>  <%Rank>  (1211) 
92.366412

>  <N_hits>  (1211) 
2

>  <submitter_name>  (1211) 
nan

>  <original SMILES>  (1211) 
nan

>  <∆G_unbound>  (1211) 
1.407194

>  <∆G_bound>  (1211) 
-12.373925

>  <regarded>  (1211) 
mArh-5l9k_B_0_B_γ,6WOJ_0_A_α

>  <ref_pdb>  (1211) 
nan

>  <smiles>  (1211) 
OC1COC(CCCCCCC2OC(O)C(O)C2O)C1O

>  <submitter_email>  (1211) 
nan

>  <disregarded>  (1211) 


>  <LE>  (1211) 
-0.656244

>  <submitter_institution>  (1211) 
nan

>  <ref_mols>  (1211) 
mArh-5l9k_B_0_B,6WOJ_0_A

>  <N_constrained_atoms>  (1211) 
17.0

>  <ref_url>  (1211) 
nan

>  <method>  (1211) 
nan

>  <comRMSD>  (1211) 
4.191794

>  <N_unconstrained_atoms>  (1211) 
4.0

>  <∆∆G>  (1211) 
-13.781119

>  <runtime>  (1211) 
37.16641

>  <generation_date>  (1211) 
nan

$$$$
mArh-5cms_M_12_M_γ-6WOJ_0_D_α
     RDKit          3D

 21 22  0  0  0  0  0  0  0  0999 V2000
   -0.9200   12.2230   -4.3940 O   0  0  0  0  0  0  0  0  0  0  0  0
   -1.0390   13.6280   -4.4310 C   0  0  1  0  0  0  0  0  0  0  0  0
   -0.8650   14.3130   -3.0800 C   0  0  0  0  0  0  0  0  0  0  0  0
    0.0910   14.2560   -5.2100 C   0  0  2  0  0  0  0  0  0  0  0  0
    1.3340   13.6890   -4.7950 O   0  0  0  0  0  0  0  0  0  0  0  0
   -0.2700   15.5970   -3.3530 O   0  0  0  0  0  0  0  0  0  0  0  0
   -0.1790   15.6970   -4.7930 C   0  0  1  0  0  0  0  0  0  0  0  0
    0.8340   16.7710   -5.1540 C   0  0  0  0  0  0  0  0  0  0  0  0
    0.3040   18.2000   -5.3520 C   0  0  0  0  0  0  0  0  0  0  0  0
   -0.1470   18.5640   -6.7820 C   0  0  0  0  0  0  0  0  0  0  0  0
   -1.2630   19.6250   -6.8710 C   0  0  0  0  0  0  0  0  0  0  0  0
   -1.1110   20.6050   -8.0460 C   0  0  0  0  0  0  0  0  0  0  0  0
   -1.5440   22.0570   -7.7560 C   0  0  0  0  0  0  0  0  0  0  0  0
   -2.9790   22.3190   -7.2470 C   0  0  2  0  0  0  0  0  0  0  0  0
   -3.9560   21.3790   -7.6730 O   0  0  0  0  0  0  0  0  0  0  0  0
   -3.6220   23.6500   -7.6620 C   0  0  1  0  0  0  0  0  0  0  0  0
   -3.6980   23.9750   -9.0280 O   0  0  0  0  0  0  0  0  0  0  0  0
   -5.1770   21.9450   -7.1440 C   0  0  2  0  0  0  0  0  0  0  0  0
   -5.0470   23.4720   -7.2180 C   0  0  1  0  0  0  0  0  0  0  0  0
   -5.3950   21.5510   -5.7980 O   0  0  0  0  0  0  0  0  0  0  0  0
   -5.3590   24.1990   -6.0400 O   0  0  0  0  0  0  0  0  0  0  0  0
  2  1  1  1
  2  3  1  0
  2  4  1  0
  4  5  1  1
  3  6  1  0
  4  7  1  0
  6  7  1  0
  7  8  1  1
  8  9  1  0
  9 10  1  0
 10 11  1  0
 11 12  1  0
 12 13  1  0
 14 13  1  6
 14 15  1  0
 14 16  1  0
 16 17  1  6
 15 18  1  0
 16 19  1  0
 18 19  1  0
 18 20  1  1
 19 21  1  1
M  END
>  <%Rank>  (1212) 
92.442748

>  <N_hits>  (1212) 
2

>  <submitter_name>  (1212) 
nan

>  <original SMILES>  (1212) 
nan

>  <∆G_unbound>  (1212) 
1.407194

>  <∆G_bound>  (1212) 
-12.863555

>  <regarded>  (1212) 
mArh-5cms_M_12_M_γ,6WOJ_0_D_α

>  <ref_pdb>  (1212) 
nan

>  <smiles>  (1212) 
OC1COC(CCCCCCC2OC(O)C(O)C2O)C1O

>  <submitter_email>  (1212) 
nan

>  <disregarded>  (1212) 


>  <LE>  (1212) 
-0.679559

>  <submitter_institution>  (1212) 
nan

>  <ref_mols>  (1212) 
mArh-5cms_M_12_M,6WOJ_0_D

>  <N_constrained_atoms>  (1212) 
17.0

>  <ref_url>  (1212) 
nan

>  <method>  (1212) 
nan

>  <comRMSD>  (1212) 
4.209016

>  <N_unconstrained_atoms>  (1212) 
4.0

>  <∆∆G>  (1212) 
-14.270749

>  <runtime>  (1212) 
36.840665

>  <generation_date>  (1212) 
nan

$$$$
mArh-5cms_O_14_O_γ-6FX7_0_A_α
     RDKit          3D

 21 22  0  0  0  0  0  0  0  0999 V2000
   -0.4990   12.3720   -4.0760 O   0  0  0  0  0  0  0  0  0  0  0  0
   -0.7100   13.7700   -4.1930 C   0  0  1  0  0  0  0  0  0  0  0  0
   -0.3170   14.5740   -2.9560 C   0  0  0  0  0  0  0  0  0  0  0  0
    0.1890   14.4200   -5.2250 C   0  0  2  0  0  0  0  0  0  0  0  0
    1.5330   13.9970   -5.0130 O   0  0  0  0  0  0  0  0  0  0  0  0
    0.1080   15.8690   -3.4410 O   0  0  0  0  0  0  0  0  0  0  0  0
   -0.1740   15.8660   -4.8550 C   0  0  1  0  0  0  0  0  0  0  0  0
    0.4540   17.0990   -5.5530 C   0  0  0  0  0  0  0  0  0  0  0  0
   -0.5670   18.0830   -6.2050 C   0  0  0  0  0  0  0  0  0  0  0  0
   -0.0900   19.0100   -7.3620 C   0  0  0  0  0  0  0  0  0  0  0  0
   -1.1850   20.0040   -7.8510 C   0  0  0  0  0  0  0  0  0  0  0  0
   -1.1420   21.3820   -7.1720 C   0  0  0  0  0  0  0  0  0  0  0  0
   -1.9960   22.5700   -7.7110 C   0  0  0  0  0  0  0  0  0  0  0  0
   -3.1720   22.2620   -8.6410 C   0  0  2  0  0  0  0  0  0  0  0  0
   -3.3500   23.3280   -9.5650 O   0  0  0  0  0  0  0  0  0  0  0  0
   -4.5800   22.2440   -8.0360 C   0  0  1  0  0  0  0  0  0  0  0  0
   -4.7720   23.0370   -6.8860 O   0  0  0  0  0  0  0  0  0  0  0  0
   -4.4400   22.8220  -10.3030 C   0  0  1  0  0  0  0  0  0  0  0  0
   -5.4680   22.6750   -9.2120 C   0  0  2  0  0  0  0  0  0  0  0  0
   -4.8640   23.7160  -11.3170 O   0  0  0  0  0  0  0  0  0  0  0  0
   -6.1130   23.9170   -8.9480 O   0  0  0  0  0  0  0  0  0  0  0  0
  2  1  1  1
  2  3  1  0
  2  4  1  0
  4  5  1  1
  3  6  1  0
  4  7  1  0
  6  7  1  0
  7  8  1  6
  8  9  1  0
  9 10  1  0
 10 11  1  0
 11 12  1  0
 12 13  1  0
 14 13  1  1
 14 15  1  0
 14 16  1  0
 16 17  1  1
 15 18  1  0
 16 19  1  0
 18 19  1  0
 18 20  1  6
 19 21  1  1
M  END
>  <%Rank>  (1213) 
92.519084

>  <N_hits>  (1213) 
2

>  <submitter_name>  (1213) 
nan

>  <original SMILES>  (1213) 
nan

>  <∆G_unbound>  (1213) 
1.407194

>  <∆G_bound>  (1213) 
-9.085409

>  <regarded>  (1213) 
mArh-5cms_O_14_O_γ,6FX7_0_A_α

>  <ref_pdb>  (1213) 
nan

>  <smiles>  (1213) 
OC1COC(CCCCCCC2OC(O)C(O)C2O)C1O

>  <submitter_email>  (1213) 
nan

>  <disregarded>  (1213) 


>  <LE>  (1213) 
-0.499648

>  <submitter_institution>  (1213) 
nan

>  <ref_mols>  (1213) 
mArh-5cms_O_14_O,6FX7_0_A

>  <N_constrained_atoms>  (1213) 
17.0

>  <ref_url>  (1213) 
nan

>  <method>  (1213) 
nan

>  <comRMSD>  (1213) 
4.133675

>  <N_unconstrained_atoms>  (1213) 
4.0

>  <∆∆G>  (1213) 
-10.492603

>  <runtime>  (1213) 
39.832571

>  <generation_date>  (1213) 
nan

$$$$
mArh-5cb5_L_0_L_γ-5CB5_0_L_α
     RDKit          3D

 21 22  0  0  0  0  0  0  0  0999 V2000
   -0.3000   12.3420   -3.9430 O   0  0  0  0  0  0  0  0  0  0  0  0
   -0.6980   13.6770   -4.1940 C   0  0  1  0  0  0  0  0  0  0  0  0
   -0.5340   14.5800   -2.9760 C   0  0  0  0  0  0  0  0  0  0  0  0
    0.1890   14.3590   -5.2230 C   0  0  2  0  0  0  0  0  0  0  0  0
    1.5380   13.9350   -5.0520 O   0  0  0  0  0  0  0  0  0  0  0  0
   -0.0970   15.8650   -3.4530 O   0  0  0  0  0  0  0  0  0  0  0  0
   -0.1520   15.8130   -4.8860 C   0  0  1  0  0  0  0  0  0  0  0  0
    0.6720   16.9800   -5.4270 C   0  0  0  0  0  0  0  0  0  0  0  0
   -0.1980   18.1830   -5.8010 C   0  0  0  0  0  0  0  0  0  0  0  0
    0.1950   18.9860   -7.0520 C   0  0  0  0  0  0  0  0  0  0  0  0
   -1.0500   19.5910   -7.7230 C   0  0  0  0  0  0  0  0  0  0  0  0
   -0.9990   21.0810   -8.0700 C   0  0  0  0  0  0  0  0  0  0  0  0
   -2.1780   21.9320   -7.5640 C   0  0  0  0  0  0  0  0  0  0  0  0
   -3.2760   22.2030   -8.6140 C   0  0  1  0  0  0  0  0  0  0  0  0
   -4.3490   21.2920   -8.4350 O   0  0  0  0  0  0  0  0  0  0  0  0
   -3.9270   23.5880   -8.5500 C   0  0  1  0  0  0  0  0  0  0  0  0
   -4.1680   24.1840   -9.8060 O   0  0  0  0  0  0  0  0  0  0  0  0
   -5.4110   21.9150   -7.7040 C   0  0  2  0  0  0  0  0  0  0  0  0
   -5.2790   23.4160   -7.8650 C   0  0  1  0  0  0  0  0  0  0  0  0
   -5.3750   21.5470   -6.3260 O   0  0  0  0  0  0  0  0  0  0  0  0
   -5.4240   24.1430   -6.6520 O   0  0  0  0  0  0  0  0  0  0  0  0
  2  1  1  1
  2  3  1  0
  2  4  1  0
  4  5  1  1
  3  6  1  0
  4  7  1  0
  6  7  1  0
  7  8  1  6
  8  9  1  0
  9 10  1  0
 10 11  1  0
 11 12  1  0
 12 13  1  0
 14 13  1  1
 14 15  1  0
 14 16  1  0
 16 17  1  6
 15 18  1  0
 16 19  1  0
 18 19  1  0
 18 20  1  1
 19 21  1  1
M  END
>  <%Rank>  (1214) 
92.59542

>  <N_hits>  (1214) 
2

>  <submitter_name>  (1214) 
nan

>  <original SMILES>  (1214) 
nan

>  <∆G_unbound>  (1214) 
1.407194

>  <∆G_bound>  (1214) 
-12.64865

>  <regarded>  (1214) 
mArh-5cb5_L_0_L_γ,5CB5_0_L_α

>  <ref_pdb>  (1214) 
nan

>  <smiles>  (1214) 
OC1COC(CCCCCCC2OC(O)C(O)C2O)C1O

>  <submitter_email>  (1214) 
nan

>  <disregarded>  (1214) 


>  <LE>  (1214) 
-0.669326

>  <submitter_institution>  (1214) 
nan

>  <ref_mols>  (1214) 
mArh-5cb5_L_0_L,5CB5_0_L

>  <N_constrained_atoms>  (1214) 
17.0

>  <ref_url>  (1214) 
nan

>  <method>  (1214) 
nan

>  <comRMSD>  (1214) 
4.26957

>  <N_unconstrained_atoms>  (1214) 
4.0

>  <∆∆G>  (1214) 
-14.055843

>  <runtime>  (1214) 
51.752759

>  <generation_date>  (1214) 
nan

$$$$
5CB5_0_C_γ-mArh-5cms_E_5_E_α
     RDKit          3D

 21 22  0  0  0  0  0  0  0  0999 V2000
   -0.5770   12.5460   -3.8050 O   0  0  0  0  0  0  0  0  0  0  0  0
   -0.9240   13.9030   -4.0000 C   0  0  1  0  0  0  0  0  0  0  0  0
   -0.5600   14.7980   -2.8280 C   0  0  0  0  0  0  0  0  0  0  0  0
   -0.1230   14.5230   -5.1290 C   0  0  2  0  0  0  0  0  0  0  0  0
    1.2200   14.0440   -5.0780 O   0  0  0  0  0  0  0  0  0  0  0  0
   -0.0550   16.0310   -3.3820 O   0  0  0  0  0  0  0  0  0  0  0  0
   -0.3550   15.9950   -4.7850 C   0  0  1  0  0  0  0  0  0  0  0  0
    0.4140   17.1170   -5.5050 C   0  0  0  0  0  0  0  0  0  0  0  0
   -0.4760   18.1580   -6.2130 C   0  0  0  0  0  0  0  0  0  0  0  0
    0.2180   19.0830   -7.2330 C   0  0  0  0  0  0  0  0  0  0  0  0
   -0.4520   20.4690   -7.3420 C   0  0  0  0  0  0  0  0  0  0  0  0
   -1.7240   20.5260   -8.1530 C   0  0  0  0  0  0  0  0  0  0  0  0
   -2.6120   21.7680   -7.9120 C   0  0  0  0  0  0  0  0  0  0  0  0
   -3.8900   21.8110   -8.7970 C   0  0  1  0  0  0  0  0  0  0  0  0
   -4.8710   22.6990   -8.2740 O   0  0  0  0  0  0  0  0  0  0  0  0
   -3.5780   22.3080  -10.1630 C   0  0  1  0  0  0  0  0  0  0  0  0
   -4.3480   22.0710  -11.3240 O   0  0  0  0  0  0  0  0  0  0  0  0
   -4.8290   23.8550   -9.0770 C   0  0  2  0  0  0  0  0  0  0  0  0
   -3.5570   23.7740   -9.8380 C   0  0  2  0  0  0  0  0  0  0  0  0
   -4.7710   24.9800   -8.2530 O   0  0  0  0  0  0  0  0  0  0  0  0
   -3.6220   24.6620  -10.9590 O   0  0  0  0  0  0  0  0  0  0  0  0
  2  1  1  1
  2  3  1  0
  2  4  1  0
  4  5  1  1
  3  6  1  0
  4  7  1  0
  6  7  1  0
  7  8  1  6
  8  9  1  0
  9 10  1  0
 10 11  1  0
 11 12  1  0
 12 13  1  0
 14 13  1  1
 14 15  1  0
 14 16  1  0
 16 17  1  6
 15 18  1  0
 16 19  1  0
 18 19  1  0
 18 20  1  1
 19 21  1  6
M  END
>  <%Rank>  (1215) 
92.671756

>  <N_hits>  (1215) 
2

>  <submitter_name>  (1215) 
nan

>  <original SMILES>  (1215) 
nan

>  <∆G_unbound>  (1215) 
1.407194

>  <∆G_bound>  (1215) 
-5.014242

>  <regarded>  (1215) 
5CB5_0_C_γ,mArh-5cms_E_5_E_α

>  <ref_pdb>  (1215) 
nan

>  <smiles>  (1215) 
OC1COC(CCCCCCC2OC(O)C(O)C2O)C1O

>  <submitter_email>  (1215) 
nan

>  <disregarded>  (1215) 


>  <LE>  (1215) 
-0.305783

>  <submitter_institution>  (1215) 
nan

>  <ref_mols>  (1215) 
5CB5_0_C,mArh-5cms_E_5_E

>  <N_constrained_atoms>  (1215) 
17.0

>  <ref_url>  (1215) 
nan

>  <method>  (1215) 
nan

>  <comRMSD>  (1215) 
4.091322

>  <N_unconstrained_atoms>  (1215) 
4.0

>  <∆∆G>  (1215) 
-6.421436

>  <runtime>  (1215) 
43.400666

>  <generation_date>  (1215) 
nan

$$$$
5CMS_0_Q_γ-mArh-5cb5_A_0_A_α
     RDKit          3D

 21 22  0  0  0  0  0  0  0  0999 V2000
   -0.8320   12.0670   -4.2370 O   0  0  0  0  0  0  0  0  0  0  0  0
   -1.0600   13.4600   -4.2400 C   0  0  1  0  0  0  0  0  0  0  0  0
   -0.6990   14.1720   -2.9300 C   0  0  0  0  0  0  0  0  0  0  0  0
   -0.1370   14.1580   -5.2000 C   0  0  2  0  0  0  0  0  0  0  0  0
    1.1900   13.6690   -5.0100 O   0  0  0  0  0  0  0  0  0  0  0  0
   -0.1780   15.4670   -3.3080 O   0  0  0  0  0  0  0  0  0  0  0  0
   -0.4670   15.5600   -4.7120 C   0  0  1  0  0  0  0  0  0  0  0  0
    0.1590   16.7910   -5.3600 C   0  0  0  0  0  0  0  0  0  0  0  0
   -0.8440   17.6030   -6.2090 C   0  0  0  0  0  0  0  0  0  0  0  0
   -1.2480   18.9520   -5.6560 C   0  0  0  0  0  0  0  0  0  0  0  0
   -2.1230   19.7730   -6.6210 C   0  0  0  0  0  0  0  0  0  0  0  0
   -1.3300   20.4880   -7.7310 C   0  0  0  0  0  0  0  0  0  0  0  0
   -2.0690   21.5900   -8.5210 C   0  0  0  0  0  0  0  0  0  0  0  0
   -3.3590   22.1570   -7.9090 C   0  0  2  0  0  0  0  0  0  0  0  0
   -4.4370   21.3110   -8.2330 O   0  0  0  0  0  0  0  0  0  0  0  0
   -3.9180   23.4720   -8.4570 C   0  0  1  0  0  0  0  0  0  0  0  0
   -3.9820   23.5750   -9.8650 O   0  0  0  0  0  0  0  0  0  0  0  0
   -5.6010   21.9710   -7.7300 C   0  0  2  0  0  0  0  0  0  0  0  0
   -5.3440   23.4650   -7.9040 C   0  0  1  0  0  0  0  0  0  0  0  0
   -5.8030   21.6710   -6.3480 O   0  0  0  0  0  0  0  0  0  0  0  0
   -5.5050   24.2020   -6.6980 O   0  0  0  0  0  0  0  0  0  0  0  0
  2  1  1  1
  2  3  1  0
  2  4  1  0
  4  5  1  1
  3  6  1  0
  4  7  1  0
  6  7  1  0
  7  8  1  6
  8  9  1  0
  9 10  1  0
 10 11  1  0
 11 12  1  0
 12 13  1  0
 14 13  1  6
 14 15  1  0
 14 16  1  0
 16 17  1  6
 15 18  1  0
 16 19  1  0
 18 19  1  0
 18 20  1  1
 19 21  1  1
M  END
>  <%Rank>  (1216) 
92.748092

>  <N_hits>  (1216) 
2

>  <submitter_name>  (1216) 
nan

>  <original SMILES>  (1216) 
nan

>  <∆G_unbound>  (1216) 
1.407194

>  <∆G_bound>  (1216) 
-10.955797

>  <regarded>  (1216) 
5CMS_0_Q_γ,mArh-5cb5_A_0_A_α

>  <ref_pdb>  (1216) 
nan

>  <smiles>  (1216) 
OC1COC(CCCCCCC2OC(O)C(O)C2O)C1O

>  <submitter_email>  (1216) 
nan

>  <disregarded>  (1216) 


>  <LE>  (1216) 
-0.588714

>  <submitter_institution>  (1216) 
nan

>  <ref_mols>  (1216) 
5CMS_0_Q,mArh-5cb5_A_0_A

>  <N_constrained_atoms>  (1216) 
17.0

>  <ref_url>  (1216) 
nan

>  <method>  (1216) 
nan

>  <comRMSD>  (1216) 
4.235866

>  <N_unconstrained_atoms>  (1216) 
4.0

>  <∆∆G>  (1216) 
-12.362991

>  <runtime>  (1216) 
41.117263

>  <generation_date>  (1216) 
nan

$$$$
mArh-5dus_0_A_γ-6MEA_0_B_α
     RDKit          3D

 21 22  0  0  0  0  0  0  0  0999 V2000
   -1.1570   12.5040   -4.2890 O   0  0  0  0  0  0  0  0  0  0  0  0
   -1.1330   13.9020   -4.1630 C   0  0  1  0  0  0  0  0  0  0  0  0
   -0.6460   14.4240   -2.8180 C   0  0  0  0  0  0  0  0  0  0  0  0
   -0.0880   14.4790   -5.0760 C   0  0  2  0  0  0  0  0  0  0  0  0
    1.1280   13.7440   -4.9350 O   0  0  0  0  0  0  0  0  0  0  0  0
    0.0510   15.6600   -3.1100 O   0  0  0  0  0  0  0  0  0  0  0  0
   -0.1270   15.8890   -4.5270 C   0  0  1  0  0  0  0  0  0  0  0  0
    0.8910   16.8990   -5.0410 C   0  0  0  0  0  0  0  0  0  0  0  0
    0.3960   18.3060   -5.4140 C   0  0  0  0  0  0  0  0  0  0  0  0
   -0.1600   18.5060   -6.8390 C   0  0  0  0  0  0  0  0  0  0  0  0
   -1.2480   19.5970   -6.9640 C   0  0  0  0  0  0  0  0  0  0  0  0
   -1.0700   20.6240   -8.1020 C   0  0  0  0  0  0  0  0  0  0  0  0
   -1.7560   21.9790   -7.8120 C   0  0  0  0  0  0  0  0  0  0  0  0
   -3.2370   22.1000   -8.2370 C   0  0  1  0  0  0  0  0  0  0  0  0
   -3.9890   21.2830   -7.3290 O   0  0  0  0  0  0  0  0  0  0  0  0
   -3.8460   23.5120   -8.1270 C   0  0  1  0  0  0  0  0  0  0  0  0
   -4.2020   24.0960   -9.3630 O   0  0  0  0  0  0  0  0  0  0  0  0
   -5.2590   21.8900   -7.0980 C   0  0  2  0  0  0  0  0  0  0  0  0
   -5.1260   23.3760   -7.3190 C   0  0  1  0  0  0  0  0  0  0  0  0
   -5.6760   21.6360   -5.7710 O   0  0  0  0  0  0  0  0  0  0  0  0
   -5.1670   24.1290   -6.1230 O   0  0  0  0  0  0  0  0  0  0  0  0
  2  1  1  1
  2  3  1  0
  2  4  1  0
  4  5  1  1
  3  6  1  0
  4  7  1  0
  6  7  1  0
  7  8  1  6
  8  9  1  0
  9 10  1  0
 10 11  1  0
 11 12  1  0
 12 13  1  0
 14 13  1  1
 14 15  1  0
 14 16  1  0
 16 17  1  6
 15 18  1  0
 16 19  1  0
 18 19  1  0
 18 20  1  1
 19 21  1  1
M  END
>  <%Rank>  (1217) 
92.824427

>  <N_hits>  (1217) 
2

>  <submitter_name>  (1217) 
nan

>  <original SMILES>  (1217) 
nan

>  <∆G_unbound>  (1217) 
1.407194

>  <∆G_bound>  (1217) 
-12.705073

>  <regarded>  (1217) 
mArh-5dus_0_A_γ,6MEA_0_B_α

>  <ref_pdb>  (1217) 
nan

>  <smiles>  (1217) 
OC1COC(CCCCCCC2OC(O)C(O)C2O)C1O

>  <submitter_email>  (1217) 
nan

>  <disregarded>  (1217) 


>  <LE>  (1217) 
-0.672013

>  <submitter_institution>  (1217) 
nan

>  <ref_mols>  (1217) 
mArh-5dus_0_A,6MEA_0_B

>  <N_constrained_atoms>  (1217) 
17.0

>  <ref_url>  (1217) 
nan

>  <method>  (1217) 
nan

>  <comRMSD>  (1217) 
4.304565

>  <N_unconstrained_atoms>  (1217) 
4.0

>  <∆∆G>  (1217) 
-14.112267

>  <runtime>  (1217) 
39.185225

>  <generation_date>  (1217) 
nan

$$$$
5CMS_0_R_γ-5CB5_0_O_α
     RDKit          3D

 21 22  0  0  0  0  0  0  0  0999 V2000
    0.1440   12.2430   -3.9720 O   0  0  0  0  0  0  0  0  0  0  0  0
   -0.3300   13.5730   -4.1000 C   0  0  1  0  0  0  0  0  0  0  0  0
    0.0160   14.4450   -2.8980 C   0  0  0  0  0  0  0  0  0  0  0  0
    0.3480   14.3210   -5.2330 C   0  0  2  0  0  0  0  0  0  0  0  0
    1.7190   13.9430   -5.2790 O   0  0  0  0  0  0  0  0  0  0  0  0
    0.2550   15.7750   -3.3910 O   0  0  0  0  0  0  0  0  0  0  0  0
    0.0010   15.7550   -4.8060 C   0  0  1  0  0  0  0  0  0  0  0  0
    0.7070   16.9630   -5.4230 C   0  0  0  0  0  0  0  0  0  0  0  0
   -0.2230   18.0610   -5.9550 C   0  0  0  0  0  0  0  0  0  0  0  0
    0.3850   18.9370   -7.0620 C   0  0  0  0  0  0  0  0  0  0  0  0
   -0.6630   19.5690   -7.9820 C   0  0  0  0  0  0  0  0  0  0  0  0
   -0.9570   21.0680   -7.8110 C   0  0  0  0  0  0  0  0  0  0  0  0
   -2.4200   21.3620   -7.4540 C   0  0  0  0  0  0  0  0  0  0  0  0
   -3.2590   21.9890   -8.5810 C   0  0  1  0  0  0  0  0  0  0  0  0
   -4.5410   21.3620   -8.5920 O   0  0  0  0  0  0  0  0  0  0  0  0
   -3.6400   23.4470   -8.3770 C   0  0  1  0  0  0  0  0  0  0  0  0
   -4.2940   24.0790   -9.4640 O   0  0  0  0  0  0  0  0  0  0  0  0
   -5.3640   22.0590   -7.6480 C   0  0  2  0  0  0  0  0  0  0  0  0
   -4.5970   23.2920   -7.2170 C   0  0  2  0  0  0  0  0  0  0  0  0
   -5.6290   21.2960   -6.4800 O   0  0  0  0  0  0  0  0  0  0  0  0
   -5.4750   24.3890   -7.0680 O   0  0  0  0  0  0  0  0  0  0  0  0
  2  1  1  1
  2  3  1  0
  2  4  1  0
  4  5  1  1
  3  6  1  0
  4  7  1  0
  6  7  1  0
  7  8  1  6
  8  9  1  0
  9 10  1  0
 10 11  1  0
 11 12  1  0
 12 13  1  0
 14 13  1  1
 14 15  1  0
 14 16  1  0
 16 17  1  6
 15 18  1  0
 16 19  1  0
 18 19  1  0
 18 20  1  1
 19 21  1  6
M  END
>  <%Rank>  (1218) 
92.900763

>  <N_hits>  (1218) 
2

>  <submitter_name>  (1218) 
nan

>  <original SMILES>  (1218) 
nan

>  <∆G_unbound>  (1218) 
1.407194

>  <∆G_bound>  (1218) 
-11.747292

>  <regarded>  (1218) 
5CMS_0_R_γ,5CB5_0_O_α

>  <ref_pdb>  (1218) 
nan

>  <smiles>  (1218) 
OC1COC(CCCCCCC2OC(O)C(O)C2O)C1O

>  <submitter_email>  (1218) 
nan

>  <disregarded>  (1218) 


>  <LE>  (1218) 
-0.626404

>  <submitter_institution>  (1218) 
nan

>  <ref_mols>  (1218) 
5CMS_0_R,5CB5_0_O

>  <N_constrained_atoms>  (1218) 
17.0

>  <ref_url>  (1218) 
nan

>  <method>  (1218) 
nan

>  <comRMSD>  (1218) 
4.299587

>  <N_unconstrained_atoms>  (1218) 
4.0

>  <∆∆G>  (1218) 
-13.154486

>  <runtime>  (1218) 
46.531959

>  <generation_date>  (1218) 
nan

$$$$
mArh-2bfq_0_A_γ-mArh-2fav_B_0_B_α
     RDKit          3D

 20 21  0  0  0  0  0  0  0  0999 V2000
   -1.2410   12.9640   -4.2490 O   0  0  0  0  0  0  0  0  0  0  0  0
   -1.0340   14.3710   -4.2110 C   0  0  1  0  0  0  0  0  0  0  0  0
   -0.6840   14.8300   -2.8030 C   0  0  0  0  0  0  0  0  0  0  0  0
    0.2490   14.7170   -4.9410 C   0  0  2  0  0  0  0  0  0  0  0  0
    1.2410   13.7260   -4.6640 O   0  0  0  0  0  0  0  0  0  0  0  0
    0.1470   16.0030   -2.9510 O   0  0  0  0  0  0  0  0  0  0  0  0
    0.5870   16.0850   -4.3360 C   0  0  2  0  0  0  0  0  0  0  0  0
   -0.0590   17.3000   -5.0330 C   0  0  0  0  0  0  0  0  0  0  0  0
    1.0100   18.0840   -5.7880 C   0  0  0  0  0  0  0  0  0  0  0  0
    0.6080   18.9610   -6.9830 C   0  0  0  0  0  0  0  0  0  0  0  0
   -0.8110   19.4790   -7.1640 C   0  0  0  0  0  0  0  0  0  0  0  0
   -0.9340   20.5520   -8.2490 C   0  0  0  0  0  0  0  0  0  0  0  0
   -1.5600   21.8760   -7.8130 C   0  0  0  0  0  0  0  0  0  0  0  0
   -3.0290   22.0420   -8.1990 C   0  0  1  0  0  0  0  0  0  0  0  0
   -3.7160   21.1060   -7.3480 O   0  0  0  0  0  0  0  0  0  0  0  0
   -3.6650   23.4310   -7.9360 C   0  0  1  0  0  0  0  0  0  0  0  0
   -4.1700   24.0080   -9.1480 O   0  0  0  0  0  0  0  0  0  0  0  0
   -4.4150   21.8600   -6.3600 C   0  0  0  0  0  0  0  0  0  0  0  0
   -4.8860   23.0860   -7.0960 C   0  0  1  0  0  0  0  0  0  0  0  0
   -5.2480   24.1460   -6.2060 O   0  0  0  0  0  0  0  0  0  0  0  0
  2  1  1  1
  2  3  1  0
  2  4  1  0
  4  5  1  1
  3  6  1  0
  4  7  1  0
  6  7  1  0
  7  8  1  6
  8  9  1  0
  9 10  1  0
 10 11  1  0
 11 12  1  0
 12 13  1  0
 14 13  1  1
 14 15  1  0
 14 16  1  0
 16 17  1  6
 15 18  1  0
 16 19  1  0
 18 19  1  0
 19 20  1  1
M  END
>  <%Rank>  (1219) 
92.977099

>  <N_hits>  (1219) 
2

>  <submitter_name>  (1219) 
nan

>  <original SMILES>  (1219) 
nan

>  <∆G_unbound>  (1219) 
0.680619

>  <∆G_bound>  (1219) 
-13.53105

>  <regarded>  (1219) 
mArh-2bfq_0_A_γ,mArh-2fav_B_0_B_α

>  <ref_pdb>  (1219) 
nan

>  <smiles>  (1219) 
OC1COC(CCCCCCC2OCC(O)C2O)C1O

>  <submitter_email>  (1219) 
nan

>  <disregarded>  (1219) 


>  <LE>  (1219) 
-0.710583

>  <submitter_institution>  (1219) 
nan

>  <ref_mols>  (1219) 
mArh-2bfq_0_A,mArh-2fav_B_0_B

>  <N_constrained_atoms>  (1219) 
16.0

>  <ref_url>  (1219) 
nan

>  <method>  (1219) 
nan

>  <comRMSD>  (1219) 
4.311986

>  <N_unconstrained_atoms>  (1219) 
4.0

>  <∆∆G>  (1219) 
-14.211669

>  <runtime>  (1219) 
31.391245

>  <generation_date>  (1219) 
nan

$$$$
mArh-5cms_H_7_H_γ-mArh-5cb5_G_0_G_α
     RDKit          3D

 21 22  0  0  0  0  0  0  0  0999 V2000
   -0.8000   12.3420   -4.0400 O   0  0  0  0  0  0  0  0  0  0  0  0
   -0.9620   13.7410   -4.0590 C   0  0  1  0  0  0  0  0  0  0  0  0
   -0.4780   14.4430   -2.7940 C   0  0  0  0  0  0  0  0  0  0  0  0
   -0.0800   14.3720   -5.1060 C   0  0  2  0  0  0  0  0  0  0  0  0
    1.2280   13.8000   -5.0520 O   0  0  0  0  0  0  0  0  0  0  0  0
    0.0760   15.7000   -3.2220 O   0  0  0  0  0  0  0  0  0  0  0  0
   -0.2290   15.8030   -4.6270 C   0  0  1  0  0  0  0  0  0  0  0  0
    0.6260   16.8920   -5.2400 C   0  0  0  0  0  0  0  0  0  0  0  0
   -0.0660   18.2330   -5.4420 C   0  0  0  0  0  0  0  0  0  0  0  0
   -0.1410   18.7740   -6.8810 C   0  0  0  0  0  0  0  0  0  0  0  0
   -1.3770   19.6570   -7.1260 C   0  0  0  0  0  0  0  0  0  0  0  0
   -1.2140   20.7050   -8.2390 C   0  0  0  0  0  0  0  0  0  0  0  0
   -1.8070   22.0820   -7.8940 C   0  0  0  0  0  0  0  0  0  0  0  0
   -3.3330   22.2520   -7.7050 C   0  0  2  0  0  0  0  0  0  0  0  0
   -4.1730   21.1530   -8.0620 O   0  0  0  0  0  0  0  0  0  0  0  0
   -4.0340   23.4080   -8.4250 C   0  0  1  0  0  0  0  0  0  0  0  0
   -4.0520   23.4060   -9.8340 O   0  0  0  0  0  0  0  0  0  0  0  0
   -5.4710   21.6750   -7.7010 C   0  0  2  0  0  0  0  0  0  0  0  0
   -5.4470   23.2100   -7.9330 C   0  0  1  0  0  0  0  0  0  0  0  0
   -5.7200   21.4630   -6.3170 O   0  0  0  0  0  0  0  0  0  0  0  0
   -5.6910   24.0030   -6.7670 O   0  0  0  0  0  0  0  0  0  0  0  0
  2  1  1  1
  2  3  1  0
  2  4  1  0
  4  5  1  1
  3  6  1  0
  4  7  1  0
  6  7  1  0
  7  8  1  6
  8  9  1  0
  9 10  1  0
 10 11  1  0
 11 12  1  0
 12 13  1  0
 14 13  1  6
 14 15  1  0
 14 16  1  0
 16 17  1  6
 15 18  1  0
 16 19  1  0
 18 19  1  0
 18 20  1  1
 19 21  1  1
M  END
>  <%Rank>  (1220) 
93.053435

>  <N_hits>  (1220) 
2

>  <submitter_name>  (1220) 
nan

>  <original SMILES>  (1220) 
nan

>  <∆G_unbound>  (1220) 
1.407194

>  <∆G_bound>  (1220) 
-11.39244

>  <regarded>  (1220) 
mArh-5cms_H_7_H_γ,mArh-5cb5_G_0_G_α

>  <ref_pdb>  (1220) 
nan

>  <smiles>  (1220) 
OC1COC(CCCCCCC2OC(O)C(O)C2O)C1O

>  <submitter_email>  (1220) 
nan

>  <disregarded>  (1220) 


>  <LE>  (1220) 
-0.609506

>  <submitter_institution>  (1220) 
nan

>  <ref_mols>  (1220) 
mArh-5cms_H_7_H,mArh-5cb5_G_0_G

>  <N_constrained_atoms>  (1220) 
17.0

>  <ref_url>  (1220) 
nan

>  <method>  (1220) 
nan

>  <comRMSD>  (1220) 
4.308505

>  <N_unconstrained_atoms>  (1220) 
4.0

>  <∆∆G>  (1220) 
-12.799634

>  <runtime>  (1220) 
42.815796

>  <generation_date>  (1220) 
nan

$$$$
5CB5_0_N_γ-5CMS_0_E_α
     RDKit          3D

 21 22  0  0  0  0  0  0  0  0999 V2000
   -0.7040   12.5860   -3.9510 O   0  0  0  0  0  0  0  0  0  0  0  0
   -0.9240   13.9760   -4.0960 C   0  0  1  0  0  0  0  0  0  0  0  0
   -0.5630   14.7830   -2.8610 C   0  0  0  0  0  0  0  0  0  0  0  0
    0.0050   14.5840   -5.1210 C   0  0  2  0  0  0  0  0  0  0  0  0
    1.3250   14.0850   -4.9470 O   0  0  0  0  0  0  0  0  0  0  0  0
   -0.0640   16.0520   -3.3370 O   0  0  0  0  0  0  0  0  0  0  0  0
   -0.2090   16.0510   -4.7680 C   0  0  1  0  0  0  0  0  0  0  0  0
    0.7300   17.0960   -5.3590 C   0  0  0  0  0  0  0  0  0  0  0  0
    0.0870   18.2560   -6.1240 C   0  0  0  0  0  0  0  0  0  0  0  0
   -1.3510   18.5970   -5.7060 C   0  0  0  0  0  0  0  0  0  0  0  0
   -2.1660   19.1800   -6.8640 C   0  0  0  0  0  0  0  0  0  0  0  0
   -2.7000   20.6100   -6.6580 C   0  0  0  0  0  0  0  0  0  0  0  0
   -2.4340   21.5530   -7.8570 C   0  0  0  0  0  0  0  0  0  0  0  0
   -3.6460   21.7920   -8.7860 C   0  0  1  0  0  0  0  0  0  0  0  0
   -4.4590   22.8790   -8.3140 O   0  0  0  0  0  0  0  0  0  0  0  0
   -3.1730   22.2090  -10.1630 C   0  0  1  0  0  0  0  0  0  0  0  0
   -3.8750   21.9350  -11.3580 O   0  0  0  0  0  0  0  0  0  0  0  0
   -4.6050   23.6140   -9.4940 C   0  0  2  0  0  0  0  0  0  0  0  0
   -3.2160   23.6750   -9.9690 C   0  0  1  0  0  0  0  0  0  0  0  0
   -5.1350   24.8850   -9.3610 O   0  0  0  0  0  0  0  0  0  0  0  0
   -2.1720   24.0700   -9.0960 O   0  0  0  0  0  0  0  0  0  0  0  0
  2  1  1  1
  2  3  1  0
  2  4  1  0
  4  5  1  1
  3  6  1  0
  4  7  1  0
  6  7  1  0
  7  8  1  6
  8  9  1  0
  9 10  1  0
 10 11  1  0
 11 12  1  0
 12 13  1  0
 14 13  1  1
 14 15  1  0
 14 16  1  0
 16 17  1  6
 15 18  1  0
 16 19  1  0
 18 19  1  0
 18 20  1  1
 19 21  1  1
M  END
>  <%Rank>  (1221) 
93.129771

>  <N_hits>  (1221) 
2

>  <submitter_name>  (1221) 
nan

>  <original SMILES>  (1221) 
nan

>  <∆G_unbound>  (1221) 
1.407194

>  <∆G_bound>  (1221) 
-4.671878

>  <regarded>  (1221) 
5CB5_0_N_γ,5CMS_0_E_α

>  <ref_pdb>  (1221) 
nan

>  <smiles>  (1221) 
OC1COC(CCCCCCC2OC(O)C(O)C2O)C1O

>  <submitter_email>  (1221) 
nan

>  <disregarded>  (1221) 


>  <LE>  (1221) 
-0.28948

>  <submitter_institution>  (1221) 
nan

>  <ref_mols>  (1221) 
5CB5_0_N,5CMS_0_E

>  <N_constrained_atoms>  (1221) 
17.0

>  <ref_url>  (1221) 
nan

>  <method>  (1221) 
nan

>  <comRMSD>  (1221) 
4.192513

>  <N_unconstrained_atoms>  (1221) 
4.0

>  <∆∆G>  (1221) 
-6.079072

>  <runtime>  (1221) 
38.88917

>  <generation_date>  (1221) 
nan

$$$$
5CB3_0_A_γ-5MQX_0_A_α
     RDKit          3D

 21 22  0  0  0  0  0  0  0  0999 V2000
   -0.6230   12.5550   -4.0450 O   0  0  0  0  0  0  0  0  0  0  0  0
   -0.9380   13.9300   -4.1650 C   0  0  1  0  0  0  0  0  0  0  0  0
   -0.6850   14.7350   -2.8960 C   0  0  0  0  0  0  0  0  0  0  0  0
   -0.0250   14.6760   -5.1190 C   0  0  2  0  0  0  0  0  0  0  0  0
    1.3320   14.3520   -4.8110 O   0  0  0  0  0  0  0  0  0  0  0  0
   -0.2450   16.0350   -3.3420 O   0  0  0  0  0  0  0  0  0  0  0  0
   -0.5000   16.0900   -4.7580 C   0  0  1  0  0  0  0  0  0  0  0  0
    0.1660   17.3580   -5.3530 C   0  0  0  0  0  0  0  0  0  0  0  0
   -0.6860   18.4210   -6.1390 C   0  0  0  0  0  0  0  0  0  0  0  0
   -2.1400   18.7510   -5.6700 C   0  0  0  0  0  0  0  0  0  0  0  0
   -2.4390   20.2600   -5.2870 C   0  0  0  0  0  0  0  0  0  0  0  0
   -3.8360   20.9560   -5.5070 C   0  0  0  0  0  0  0  0  0  0  0  0
   -4.3890   20.6840   -6.9020 C   0  0  0  0  0  0  0  0  0  0  0  0
   -5.8850   20.3980   -7.2300 C   0  0  2  0  0  0  0  0  0  0  0  0
   -6.0660   18.9480   -7.0970 O   0  0  0  0  0  0  0  0  0  0  0  0
   -6.6640   20.7670   -8.5160 C   0  0  1  0  0  0  0  0  0  0  0  0
   -5.9880   21.4500   -9.5380 O   0  0  0  0  0  0  0  0  0  0  0  0
   -6.9160   18.3760   -8.1020 C   0  0  2  0  0  0  0  0  0  0  0  0
   -7.5270   19.5250   -8.9050 C   0  0  1  0  0  0  0  0  0  0  0  0
   -7.8840   17.4680   -7.6420 O   0  0  0  0  0  0  0  0  0  0  0  0
   -8.8810   19.7440   -8.5890 O   0  0  0  0  0  0  0  0  0  0  0  0
  2  1  1  1
  2  3  1  0
  2  4  1  0
  4  5  1  1
  3  6  1  0
  4  7  1  0
  6  7  1  0
  7  8  1  6
  8  9  1  0
  9 10  1  0
 10 11  1  0
 11 12  1  0
 12 13  1  0
 14 13  1  6
 14 15  1  0
 14 16  1  0
 16 17  1  6
 15 18  1  0
 16 19  1  0
 18 19  1  0
 18 20  1  1
 19 21  1  1
M  END
>  <%Rank>  (1222) 
93.206107

>  <N_hits>  (1222) 
2

>  <submitter_name>  (1222) 
nan

>  <original SMILES>  (1222) 
nan

>  <∆G_unbound>  (1222) 
1.407194

>  <∆G_bound>  (1222) 
-2.18261

>  <regarded>  (1222) 
5CB3_0_A_γ,5MQX_0_A_α

>  <ref_pdb>  (1222) 
nan

>  <smiles>  (1222) 
OC1COC(CCCCCCC2OC(O)C(O)C2O)C1O

>  <submitter_email>  (1222) 
nan

>  <disregarded>  (1222) 


>  <LE>  (1222) 
-0.170943

>  <submitter_institution>  (1222) 
nan

>  <ref_mols>  (1222) 
5CB3_0_A,5MQX_0_A

>  <N_constrained_atoms>  (1222) 
17.0

>  <ref_url>  (1222) 
nan

>  <method>  (1222) 
nan

>  <comRMSD>  (1222) 
4.138403

>  <N_unconstrained_atoms>  (1222) 
4.0

>  <∆∆G>  (1222) 
-3.589803

>  <runtime>  (1222) 
55.628985

>  <generation_date>  (1222) 
nan

$$$$
mArh-5cb5_M_1_M_γ-5MQX_0_A_α
     RDKit          3D

 21 22  0  0  0  0  0  0  0  0999 V2000
   -0.3500   12.6780   -3.8560 O   0  0  0  0  0  0  0  0  0  0  0  0
   -0.8460   14.0000   -3.9990 C   0  0  1  0  0  0  0  0  0  0  0  0
   -0.4240   14.9340   -2.8850 C   0  0  0  0  0  0  0  0  0  0  0  0
   -0.2690   14.7000   -5.2160 C   0  0  2  0  0  0  0  0  0  0  0  0
    1.1090   14.3570   -5.3590 O   0  0  0  0  0  0  0  0  0  0  0  0
   -0.1380   16.2130   -3.4940 O   0  0  0  0  0  0  0  0  0  0  0  0
   -0.6040   16.1620   -4.8550 C   0  0  1  0  0  0  0  0  0  0  0  0
   -0.0120   17.3810   -5.6320 C   0  0  0  0  0  0  0  0  0  0  0  0
   -0.9020   18.0970   -6.7020 C   0  0  0  0  0  0  0  0  0  0  0  0
   -1.4210   19.5460   -6.4590 C   0  0  0  0  0  0  0  0  0  0  0  0
   -2.9510   19.5610   -6.2400 C   0  0  0  0  0  0  0  0  0  0  0  0
   -3.9680   20.7260   -6.6050 C   0  0  0  0  0  0  0  0  0  0  0  0
   -5.4390   20.5770   -7.3230 C   0  0  0  0  0  0  0  0  0  0  0  0
   -6.2530   19.2660   -7.8110 C   0  0  2  0  0  0  0  0  0  0  0  0
   -5.8240   17.9410   -7.4110 O   0  0  0  0  0  0  0  0  0  0  0  0
   -7.4540   19.1500   -8.8160 C   0  0  2  0  0  0  0  0  0  0  0  0
   -8.4510   20.1130   -8.6700 O   0  0  0  0  0  0  0  0  0  0  0  0
   -6.8210   16.9920   -7.8700 C   0  0  2  0  0  0  0  0  0  0  0  0
   -7.9290   17.7080   -8.6790 C   0  0  1  0  0  0  0  0  0  0  0  0
   -7.3960   16.2330   -6.8170 O   0  0  0  0  0  0  0  0  0  0  0  0
   -9.2720   17.5570   -8.2920 O   0  0  0  0  0  0  0  0  0  0  0  0
  2  1  1  1
  2  3  1  0
  2  4  1  0
  4  5  1  1
  3  6  1  0
  4  7  1  0
  6  7  1  0
  7  8  1  6
  8  9  1  0
  9 10  1  0
 10 11  1  0
 11 12  1  0
 12 13  1  0
 14 13  1  6
 14 15  1  0
 14 16  1  0
 16 17  1  1
 15 18  1  0
 16 19  1  0
 18 19  1  0
 18 20  1  1
 19 21  1  1
M  END
>  <%Rank>  (1223) 
93.282443

>  <N_hits>  (1223) 
2

>  <submitter_name>  (1223) 
nan

>  <original SMILES>  (1223) 
nan

>  <∆G_unbound>  (1223) 
1.407194

>  <∆G_bound>  (1223) 
-1.457355

>  <regarded>  (1223) 
mArh-5cb5_M_1_M_γ,5MQX_0_A_α

>  <ref_pdb>  (1223) 
nan

>  <smiles>  (1223) 
OC1COC(CCCCCCC2OC(O)C(O)C2O)C1O

>  <submitter_email>  (1223) 
nan

>  <disregarded>  (1223) 


>  <LE>  (1223) 
-0.136407

>  <submitter_institution>  (1223) 
nan

>  <ref_mols>  (1223) 
mArh-5cb5_M_1_M,5MQX_0_A

>  <N_constrained_atoms>  (1223) 
17.0

>  <ref_url>  (1223) 
nan

>  <method>  (1223) 
nan

>  <comRMSD>  (1223) 
4.123243

>  <N_unconstrained_atoms>  (1223) 
4.0

>  <∆∆G>  (1223) 
-2.864549

>  <runtime>  (1223) 
52.903629

>  <generation_date>  (1223) 
nan

$$$$
6WOJ_0_D_γ-5CB5_0_K_α
     RDKit          3D

 21 22  0  0  0  0  0  0  0  0999 V2000
   -0.5910   12.2380   -4.3760 O   0  0  0  0  0  0  0  0  0  0  0  0
   -0.6370   13.6500   -4.2760 C   0  0  1  0  0  0  0  0  0  0  0  0
   -0.2560   14.1970   -2.9010 C   0  0  0  0  0  0  0  0  0  0  0  0
    0.4050   14.3410   -5.1310 C   0  0  2  0  0  0  0  0  0  0  0  0
    1.6840   13.7550   -4.8930 O   0  0  0  0  0  0  0  0  0  0  0  0
    0.3300   15.5000   -3.1380 O   0  0  0  0  0  0  0  0  0  0  0  0
    0.1260   15.7160   -4.5460 C   0  0  1  0  0  0  0  0  0  0  0  0
    0.8480   16.9580   -5.0650 C   0  0  0  0  0  0  0  0  0  0  0  0
   -0.1110   18.0800   -5.4930 C   0  0  0  0  0  0  0  0  0  0  0  0
    0.2200   18.8180   -6.8060 C   0  0  0  0  0  0  0  0  0  0  0  0
   -1.0510   19.2480   -7.5700 C   0  0  0  0  0  0  0  0  0  0  0  0
   -1.7950   20.5020   -7.0820 C   0  0  0  0  0  0  0  0  0  0  0  0
   -1.7950   21.6710   -8.0920 C   0  0  0  0  0  0  0  0  0  0  0  0
   -3.1890   22.0410   -8.6580 C   0  0  1  0  0  0  0  0  0  0  0  0
   -4.1890   21.2620   -8.0370 O   0  0  0  0  0  0  0  0  0  0  0  0
   -3.6710   23.4740   -8.4060 C   0  0  1  0  0  0  0  0  0  0  0  0
   -4.4790   24.0020   -9.4530 O   0  0  0  0  0  0  0  0  0  0  0  0
   -4.5120   21.8930   -6.8070 C   0  0  1  0  0  0  0  0  0  0  0  0
   -4.4220   23.3940   -7.0660 C   0  0  2  0  0  0  0  0  0  0  0  0
   -5.8240   21.5390   -6.3740 O   0  0  0  0  0  0  0  0  0  0  0  0
   -5.7100   24.0170   -7.1170 O   0  0  0  0  0  0  0  0  0  0  0  0
  2  1  1  1
  2  3  1  0
  2  4  1  0
  4  5  1  1
  3  6  1  0
  4  7  1  0
  6  7  1  0
  7  8  1  6
  8  9  1  0
  9 10  1  0
 10 11  1  0
 11 12  1  0
 12 13  1  0
 14 13  1  1
 14 15  1  0
 14 16  1  0
 16 17  1  6
 15 18  1  0
 16 19  1  0
 18 19  1  0
 18 20  1  6
 19 21  1  6
M  END
>  <%Rank>  (1224) 
93.358779

>  <N_hits>  (1224) 
2

>  <submitter_name>  (1224) 
nan

>  <original SMILES>  (1224) 
nan

>  <∆G_unbound>  (1224) 
1.407194

>  <∆G_bound>  (1224) 
-12.923872

>  <regarded>  (1224) 
6WOJ_0_D_γ,5CB5_0_K_α

>  <ref_pdb>  (1224) 
nan

>  <smiles>  (1224) 
OC1COC(CCCCCCC2OC(O)C(O)C2O)C1O

>  <submitter_email>  (1224) 
nan

>  <disregarded>  (1224) 


>  <LE>  (1224) 
-0.682432

>  <submitter_institution>  (1224) 
nan

>  <ref_mols>  (1224) 
6WOJ_0_D,5CB5_0_K

>  <N_constrained_atoms>  (1224) 
17.0

>  <ref_url>  (1224) 
nan

>  <method>  (1224) 
nan

>  <comRMSD>  (1224) 
4.413481

>  <N_unconstrained_atoms>  (1224) 
4.0

>  <∆∆G>  (1224) 
-14.331066

>  <runtime>  (1224) 
46.022904

>  <generation_date>  (1224) 
nan

$$$$
mArh-5l9k_A_0_A_γ-5L9K_0_B_α
     RDKit          3D

 21 22  0  0  0  0  0  0  0  0999 V2000
   -2.3130   12.7680   -4.7770 O   0  0  0  0  0  0  0  0  0  0  0  0
   -1.9380   14.1030   -4.5580 C   0  0  1  0  0  0  0  0  0  0  0  0
   -1.6670   14.5480   -3.1230 C   0  0  0  0  0  0  0  0  0  0  0  0
   -0.5710   14.3970   -5.1110 C   0  0  2  0  0  0  0  0  0  0  0  0
    0.4080   13.6040   -4.4420 O   0  0  0  0  0  0  0  0  0  0  0  0
   -0.7650   15.6750   -3.2850 O   0  0  0  0  0  0  0  0  0  0  0  0
   -0.6700   15.8530   -4.7120 C   0  0  1  0  0  0  0  0  0  0  0  0
    0.4100   16.8520   -5.1160 C   0  0  0  0  0  0  0  0  0  0  0  0
   -0.0970   18.2600   -5.4820 C   0  0  0  0  0  0  0  0  0  0  0  0
   -1.1140   18.3340   -6.6380 C   0  0  0  0  0  0  0  0  0  0  0  0
   -1.8900   19.6710   -6.7200 C   0  0  0  0  0  0  0  0  0  0  0  0
   -1.2890   20.6960   -7.7020 C   0  0  0  0  0  0  0  0  0  0  0  0
   -2.2700   21.6150   -8.4710 C   0  0  0  0  0  0  0  0  0  0  0  0
   -3.5580   22.0530   -7.7620 C   0  0  2  0  0  0  0  0  0  0  0  0
   -4.6340   21.1460   -8.0150 O   0  0  0  0  0  0  0  0  0  0  0  0
   -4.1480   23.4230   -8.1530 C   0  0  1  0  0  0  0  0  0  0  0  0
   -4.2860   23.8040   -9.5110 O   0  0  0  0  0  0  0  0  0  0  0  0
   -5.7570   21.8090   -7.4420 C   0  0  1  0  0  0  0  0  0  0  0  0
   -5.5330   23.3340   -7.5680 C   0  0  1  0  0  0  0  0  0  0  0  0
   -6.9290   21.4170   -8.1480 O   0  0  0  0  0  0  0  0  0  0  0  0
   -5.6180   24.0810   -6.3610 O   0  0  0  0  0  0  0  0  0  0  0  0
  2  1  1  1
  2  3  1  0
  2  4  1  0
  4  5  1  1
  3  6  1  0
  4  7  1  0
  6  7  1  0
  7  8  1  1
  8  9  1  0
  9 10  1  0
 10 11  1  0
 11 12  1  0
 12 13  1  0
 14 13  1  6
 14 15  1  0
 14 16  1  0
 16 17  1  6
 15 18  1  0
 16 19  1  0
 18 19  1  0
 18 20  1  6
 19 21  1  1
M  END
>  <%Rank>  (1225) 
93.435115

>  <N_hits>  (1225) 
2

>  <submitter_name>  (1225) 
nan

>  <original SMILES>  (1225) 
nan

>  <∆G_unbound>  (1225) 
1.407194

>  <∆G_bound>  (1225) 
-11.50132

>  <regarded>  (1225) 
mArh-5l9k_A_0_A_γ,5L9K_0_B_α

>  <ref_pdb>  (1225) 
nan

>  <smiles>  (1225) 
OC1COC(CCCCCCC2OC(O)C(O)C2O)C1O

>  <submitter_email>  (1225) 
nan

>  <disregarded>  (1225) 


>  <LE>  (1225) 
-0.614691

>  <submitter_institution>  (1225) 
nan

>  <ref_mols>  (1225) 
mArh-5l9k_A_0_A,5L9K_0_B

>  <N_constrained_atoms>  (1225) 
17.0

>  <ref_url>  (1225) 
nan

>  <method>  (1225) 
nan

>  <comRMSD>  (1225) 
4.381025

>  <N_unconstrained_atoms>  (1225) 
4.0

>  <∆∆G>  (1225) 
-12.908514

>  <runtime>  (1225) 
35.785244

>  <generation_date>  (1225) 
nan

$$$$
mArh-5cb5_P_0_P_γ-5LW0_1_B_α
     RDKit          3D

 21 22  0  0  0  0  0  0  0  0999 V2000
   -0.6690   12.3340   -3.9390 O   0  0  0  0  0  0  0  0  0  0  0  0
   -0.9860   13.6960   -4.1540 C   0  0  1  0  0  0  0  0  0  0  0  0
   -0.8240   14.5510   -2.9080 C   0  0  0  0  0  0  0  0  0  0  0  0
   -0.0130   14.3490   -5.1190 C   0  0  2  0  0  0  0  0  0  0  0  0
    1.3090   13.8760   -4.8740 O   0  0  0  0  0  0  0  0  0  0  0  0
   -0.2980   15.8190   -3.3420 O   0  0  0  0  0  0  0  0  0  0  0  0
   -0.2840   15.8100   -4.7790 C   0  0  1  0  0  0  0  0  0  0  0  0
    0.7030   16.8740   -5.2540 C   0  0  0  0  0  0  0  0  0  0  0  0
    0.1120   18.2410   -5.6190 C   0  0  0  0  0  0  0  0  0  0  0  0
   -1.0140   18.2210   -6.6680 C   0  0  0  0  0  0  0  0  0  0  0  0
   -1.7660   19.5540   -6.8220 C   0  0  0  0  0  0  0  0  0  0  0  0
   -1.2330   20.4260   -7.9670 C   0  0  0  0  0  0  0  0  0  0  0  0
   -2.2510   21.3220   -8.7120 C   0  0  0  0  0  0  0  0  0  0  0  0
   -3.6070   21.6070   -8.0490 C   0  0  2  0  0  0  0  0  0  0  0  0
   -4.3800   20.4600   -7.6980 O   0  0  0  0  0  0  0  0  0  0  0  0
   -4.6090   22.4550   -8.8480 C   0  0  1  0  0  0  0  0  0  0  0  0
   -4.8750   22.1000  -10.1940 O   0  0  0  0  0  0  0  0  0  0  0  0
   -5.4890   21.1220   -7.1070 C   0  0  1  0  0  0  0  0  0  0  0  0
   -5.8510   22.2980   -8.0060 C   0  0  1  0  0  0  0  0  0  0  0  0
   -6.6000   20.2860   -7.0120 O   0  0  0  0  0  0  0  0  0  0  0  0
   -6.1400   23.5030   -7.3050 O   0  0  0  0  0  0  0  0  0  0  0  0
  2  1  1  1
  2  3  1  0
  2  4  1  0
  4  5  1  1
  3  6  1  0
  4  7  1  0
  6  7  1  0
  7  8  1  1
  8  9  1  0
  9 10  1  0
 10 11  1  0
 11 12  1  0
 12 13  1  0
 14 13  1  6
 14 15  1  0
 14 16  1  0
 16 17  1  6
 15 18  1  0
 16 19  1  0
 18 19  1  0
 18 20  1  6
 19 21  1  1
M  END
>  <%Rank>  (1226) 
93.51145

>  <N_hits>  (1226) 
2

>  <submitter_name>  (1226) 
nan

>  <original SMILES>  (1226) 
nan

>  <∆G_unbound>  (1226) 
1.407194

>  <∆G_bound>  (1226) 
-8.995775

>  <regarded>  (1226) 
mArh-5cb5_P_0_P_γ,5LW0_1_B_α

>  <ref_pdb>  (1226) 
nan

>  <smiles>  (1226) 
OC1COC(CCCCCCC2OC(O)C(O)C2O)C1O

>  <submitter_email>  (1226) 
nan

>  <disregarded>  (1226) 


>  <LE>  (1226) 
-0.495379

>  <submitter_institution>  (1226) 
nan

>  <ref_mols>  (1226) 
mArh-5cb5_P_0_P,5LW0_1_B

>  <N_constrained_atoms>  (1226) 
17.0

>  <ref_url>  (1226) 
nan

>  <method>  (1226) 
nan

>  <comRMSD>  (1226) 
4.3249

>  <N_unconstrained_atoms>  (1226) 
4.0

>  <∆∆G>  (1226) 
-10.402969

>  <runtime>  (1226) 
40.616911

>  <generation_date>  (1226) 
nan

$$$$
mArh-5lw0_A_0_A_γ-2BFQ_1_A_α
     RDKit          3D

 21 22  0  0  0  0  0  0  0  0999 V2000
   -0.3560   12.1160   -3.7400 O   0  0  0  0  0  0  0  0  0  0  0  0
   -0.6800   13.4710   -3.9910 C   0  0  1  0  0  0  0  0  0  0  0  0
   -0.5740   14.3630   -2.7600 C   0  0  0  0  0  0  0  0  0  0  0  0
    0.3190   14.1490   -4.9130 C   0  0  2  0  0  0  0  0  0  0  0  0
    1.6430   13.7820   -4.5090 O   0  0  0  0  0  0  0  0  0  0  0  0
   -0.2130   15.6750   -3.2360 O   0  0  0  0  0  0  0  0  0  0  0  0
   -0.0990   15.6030   -4.6770 C   0  0  1  0  0  0  0  0  0  0  0  0
    0.8410   16.7150   -5.1680 C   0  0  0  0  0  0  0  0  0  0  0  0
    0.3300   18.1690   -5.3440 C   0  0  0  0  0  0  0  0  0  0  0  0
   -0.7130   18.4670   -6.4580 C   0  0  0  0  0  0  0  0  0  0  0  0
   -0.3290   19.5970   -7.4610 C   0  0  0  0  0  0  0  0  0  0  0  0
   -1.5180   20.4100   -8.0420 C   0  0  0  0  0  0  0  0  0  0  0  0
   -1.6050   21.9270   -7.7290 C   0  0  0  0  0  0  0  0  0  0  0  0
   -3.0080   22.3900   -7.2510 C   0  0  2  0  0  0  0  0  0  0  0  0
   -4.0360   21.4820   -7.6180 O   0  0  0  0  0  0  0  0  0  0  0  0
   -3.6300   23.7280   -7.6970 C   0  0  1  0  0  0  0  0  0  0  0  0
   -3.7810   23.9810   -9.0790 O   0  0  0  0  0  0  0  0  0  0  0  0
   -5.1390   22.0760   -6.9300 C   0  0  1  0  0  0  0  0  0  0  0  0
   -5.0320   23.5850   -7.1450 C   0  0  1  0  0  0  0  0  0  0  0  0
   -6.3650   21.6440   -7.4720 O   0  0  0  0  0  0  0  0  0  0  0  0
   -5.3100   24.3730   -6.0030 O   0  0  0  0  0  0  0  0  0  0  0  0
  2  1  1  1
  2  3  1  0
  2  4  1  0
  4  5  1  1
  3  6  1  0
  4  7  1  0
  6  7  1  0
  7  8  1  1
  8  9  1  0
  9 10  1  0
 10 11  1  0
 11 12  1  0
 12 13  1  0
 14 13  1  6
 14 15  1  0
 14 16  1  0
 16 17  1  6
 15 18  1  0
 16 19  1  0
 18 19  1  0
 18 20  1  6
 19 21  1  1
M  END
>  <%Rank>  (1227) 
93.587786

>  <N_hits>  (1227) 
2

>  <submitter_name>  (1227) 
nan

>  <original SMILES>  (1227) 
nan

>  <∆G_unbound>  (1227) 
1.407194

>  <∆G_bound>  (1227) 
-12.561022

>  <regarded>  (1227) 
mArh-5lw0_A_0_A_γ,2BFQ_1_A_α

>  <ref_pdb>  (1227) 
nan

>  <smiles>  (1227) 
OC1COC(CCCCCCC2OC(O)C(O)C2O)C1O

>  <submitter_email>  (1227) 
nan

>  <disregarded>  (1227) 


>  <LE>  (1227) 
-0.665153

>  <submitter_institution>  (1227) 
nan

>  <ref_mols>  (1227) 
mArh-5lw0_A_0_A,2BFQ_1_A

>  <N_constrained_atoms>  (1227) 
17.0

>  <ref_url>  (1227) 
nan

>  <method>  (1227) 
nan

>  <comRMSD>  (1227) 
4.41212

>  <N_unconstrained_atoms>  (1227) 
4.0

>  <∆∆G>  (1227) 
-13.968216

>  <runtime>  (1227) 
39.823442

>  <generation_date>  (1227) 
nan

$$$$
5CB5_0_D_γ-5CB5_0_G_α
     RDKit          3D

 21 22  0  0  0  0  0  0  0  0999 V2000
   -0.0090   12.4540   -4.0980 O   0  0  0  0  0  0  0  0  0  0  0  0
   -0.5690   13.7450   -4.2430 C   0  0  1  0  0  0  0  0  0  0  0  0
   -0.4410   14.6010   -2.9940 C   0  0  0  0  0  0  0  0  0  0  0  0
    0.2000   14.5440   -5.2670 C   0  0  2  0  0  0  0  0  0  0  0  0
    1.5770   14.2100   -5.1880 O   0  0  0  0  0  0  0  0  0  0  0  0
   -0.1150   15.9350   -3.4200 O   0  0  0  0  0  0  0  0  0  0  0  0
   -0.1700   15.9630   -4.8570 C   0  0  1  0  0  0  0  0  0  0  0  0
    0.7230   17.1050   -5.3210 C   0  0  0  0  0  0  0  0  0  0  0  0
    0.0200   18.4100   -5.6380 C   0  0  0  0  0  0  0  0  0  0  0  0
   -1.1110   18.3360   -6.6580 C   0  0  0  0  0  0  0  0  0  0  0  0
   -1.8370   19.6790   -6.7950 C   0  0  0  0  0  0  0  0  0  0  0  0
   -1.0940   20.6750   -7.6840 C   0  0  0  0  0  0  0  0  0  0  0  0
   -1.9740   21.6130   -8.5190 C   0  0  0  0  0  0  0  0  0  0  0  0
   -3.2350   22.1510   -7.8580 C   0  0  2  0  0  0  0  0  0  0  0  0
   -4.3550   21.3490   -8.1780 O   0  0  0  0  0  0  0  0  0  0  0  0
   -3.7470   23.5010   -8.3410 C   0  0  1  0  0  0  0  0  0  0  0  0
   -3.9330   23.6280   -9.7430 O   0  0  0  0  0  0  0  0  0  0  0  0
   -5.4650   22.0540   -7.6040 C   0  0  2  0  0  0  0  0  0  0  0  0
   -5.0840   23.5390   -7.6270 C   0  0  2  0  0  0  0  0  0  0  0  0
   -5.6810   21.6470   -6.2530 O   0  0  0  0  0  0  0  0  0  0  0  0
   -6.0070   24.3420   -8.3560 O   0  0  0  0  0  0  0  0  0  0  0  0
  2  1  1  1
  2  3  1  0
  2  4  1  0
  4  5  1  1
  3  6  1  0
  4  7  1  0
  6  7  1  0
  7  8  1  6
  8  9  1  0
  9 10  1  0
 10 11  1  0
 11 12  1  0
 12 13  1  0
 14 13  1  6
 14 15  1  0
 14 16  1  0
 16 17  1  6
 15 18  1  0
 16 19  1  0
 18 19  1  0
 18 20  1  1
 19 21  1  6
M  END
>  <%Rank>  (1228) 
93.664122

>  <N_hits>  (1228) 
2

>  <submitter_name>  (1228) 
nan

>  <original SMILES>  (1228) 
nan

>  <∆G_unbound>  (1228) 
1.407194

>  <∆G_bound>  (1228) 
-10.826999

>  <regarded>  (1228) 
5CB5_0_D_γ,5CB5_0_G_α

>  <ref_pdb>  (1228) 
nan

>  <smiles>  (1228) 
OC1COC(CCCCCCC2OC(O)C(O)C2O)C1O

>  <submitter_email>  (1228) 
nan

>  <disregarded>  (1228) 


>  <LE>  (1228) 
-0.582581

>  <submitter_institution>  (1228) 
nan

>  <ref_mols>  (1228) 
5CB5_0_D,5CB5_0_G

>  <N_constrained_atoms>  (1228) 
17.0

>  <ref_url>  (1228) 
nan

>  <method>  (1228) 
nan

>  <comRMSD>  (1228) 
4.371477

>  <N_unconstrained_atoms>  (1228) 
4.0

>  <∆∆G>  (1228) 
-12.234193

>  <runtime>  (1228) 
35.554914

>  <generation_date>  (1228) 
nan

$$$$
5CB5_0_G_γ-6FX7_0_A_α
     RDKit          3D

 21 22  0  0  0  0  0  0  0  0999 V2000
   -0.6570   12.4060   -3.8920 O   0  0  0  0  0  0  0  0  0  0  0  0
   -0.9850   13.7670   -4.0790 C   0  0  1  0  0  0  0  0  0  0  0  0
   -0.6210   14.6520   -2.8920 C   0  0  0  0  0  0  0  0  0  0  0  0
   -0.1570   14.3770   -5.1870 C   0  0  2  0  0  0  0  0  0  0  0  0
    1.1800   13.8890   -5.1030 O   0  0  0  0  0  0  0  0  0  0  0  0
   -0.1060   15.8860   -3.4330 O   0  0  0  0  0  0  0  0  0  0  0  0
   -0.3990   15.8440   -4.8380 C   0  0  1  0  0  0  0  0  0  0  0  0
    0.3540   16.9570   -5.5650 C   0  0  0  0  0  0  0  0  0  0  0  0
   -0.5420   17.8600   -6.4350 C   0  0  0  0  0  0  0  0  0  0  0  0
   -0.1450   19.2970   -6.4860 C   0  0  0  0  0  0  0  0  0  0  0  0
   -0.7790   20.0870   -7.6280 C   0  0  0  0  0  0  0  0  0  0  0  0
   -1.9940   20.8860   -7.1440 C   0  0  0  0  0  0  0  0  0  0  0  0
   -2.1690   22.2580   -7.8040 C   0  0  0  0  0  0  0  0  0  0  0  0
   -3.2090   22.1460   -8.9100 C   0  0  2  0  0  0  0  0  0  0  0  0
   -3.3300   23.3290   -9.6910 O   0  0  0  0  0  0  0  0  0  0  0  0
   -4.6600   21.8820   -8.4700 C   0  0  1  0  0  0  0  0  0  0  0  0
   -4.9940   22.3290   -7.1660 O   0  0  0  0  0  0  0  0  0  0  0  0
   -4.3550   22.8860  -10.5590 C   0  0  1  0  0  0  0  0  0  0  0  0
   -5.4540   22.5950   -9.5660 C   0  0  2  0  0  0  0  0  0  0  0  0
   -4.7390   23.8770  -11.4880 O   0  0  0  0  0  0  0  0  0  0  0  0
   -6.0480   23.8000   -9.0930 O   0  0  0  0  0  0  0  0  0  0  0  0
  2  1  1  1
  2  3  1  0
  2  4  1  0
  4  5  1  1
  3  6  1  0
  4  7  1  0
  6  7  1  0
  7  8  1  6
  8  9  1  0
  9 10  1  0
 10 11  1  0
 11 12  1  0
 12 13  1  0
 14 13  1  1
 14 15  1  0
 14 16  1  0
 16 17  1  1
 15 18  1  0
 16 19  1  0
 18 19  1  0
 18 20  1  6
 19 21  1  1
M  END
>  <%Rank>  (1229) 
93.740458

>  <N_hits>  (1229) 
2

>  <submitter_name>  (1229) 
nan

>  <original SMILES>  (1229) 
nan

>  <∆G_unbound>  (1229) 
1.407194

>  <∆G_bound>  (1229) 
-7.678465

>  <regarded>  (1229) 
5CB5_0_G_γ,6FX7_0_A_α

>  <ref_pdb>  (1229) 
nan

>  <smiles>  (1229) 
OC1COC(CCCCCCC2OC(O)C(O)C2O)C1O

>  <submitter_email>  (1229) 
nan

>  <disregarded>  (1229) 


>  <LE>  (1229) 
-0.43265

>  <submitter_institution>  (1229) 
nan

>  <ref_mols>  (1229) 
5CB5_0_G,6FX7_0_A

>  <N_constrained_atoms>  (1229) 
17.0

>  <ref_url>  (1229) 
nan

>  <method>  (1229) 
nan

>  <comRMSD>  (1229) 
4.301207

>  <N_unconstrained_atoms>  (1229) 
4.0

>  <∆∆G>  (1229) 
-9.085659

>  <runtime>  (1229) 
48.523436

>  <generation_date>  (1229) 
nan

$$$$
mArh-5cb5_B_0_B_γ-mArh-6fx_7_0A_α
     RDKit          3D

 21 22  0  0  0  0  0  0  0  0999 V2000
   -0.6510   12.5390   -4.0000 O   0  0  0  0  0  0  0  0  0  0  0  0
   -0.9320   13.9220   -4.1040 C   0  0  1  0  0  0  0  0  0  0  0  0
   -0.5740   14.7180   -2.8580 C   0  0  0  0  0  0  0  0  0  0  0  0
   -0.0570   14.5930   -5.1390 C   0  0  2  0  0  0  0  0  0  0  0  0
    1.2820   14.1210   -5.0170 O   0  0  0  0  0  0  0  0  0  0  0  0
   -0.0820   15.9960   -3.3160 O   0  0  0  0  0  0  0  0  0  0  0  0
   -0.3150   16.0460   -4.7360 C   0  0  1  0  0  0  0  0  0  0  0  0
    0.5240   17.1780   -5.3480 C   0  0  0  0  0  0  0  0  0  0  0  0
   -0.0950   17.9290   -6.5380 C   0  0  0  0  0  0  0  0  0  0  0  0
   -0.6290   19.3170   -6.3270 C   0  0  0  0  0  0  0  0  0  0  0  0
   -1.8480   19.6370   -7.1790 C   0  0  0  0  0  0  0  0  0  0  0  0
   -2.5230   20.9530   -6.7890 C   0  0  0  0  0  0  0  0  0  0  0  0
   -2.2260   22.1200   -7.7570 C   0  0  0  0  0  0  0  0  0  0  0  0
   -3.2350   22.0680   -8.8990 C   0  0  2  0  0  0  0  0  0  0  0  0
   -3.3510   23.2750   -9.6460 O   0  0  0  0  0  0  0  0  0  0  0  0
   -4.6860   21.7890   -8.4760 C   0  0  1  0  0  0  0  0  0  0  0  0
   -5.0430   22.2710   -7.1910 O   0  0  0  0  0  0  0  0  0  0  0  0
   -4.3620   22.8430  -10.5420 C   0  0  1  0  0  0  0  0  0  0  0  0
   -5.4860   22.4520   -9.5960 C   0  0  2  0  0  0  0  0  0  0  0  0
   -4.7580   23.8560  -11.4410 O   0  0  0  0  0  0  0  0  0  0  0  0
   -6.2260   23.5640   -9.1170 O   0  0  0  0  0  0  0  0  0  0  0  0
  2  1  1  1
  2  3  1  0
  2  4  1  0
  4  5  1  1
  3  6  1  0
  4  7  1  0
  6  7  1  0
  7  8  1  6
  8  9  1  0
  9 10  1  0
 10 11  1  0
 11 12  1  0
 12 13  1  0
 14 13  1  1
 14 15  1  0
 14 16  1  0
 16 17  1  1
 15 18  1  0
 16 19  1  0
 18 19  1  0
 18 20  1  6
 19 21  1  1
M  END
>  <%Rank>  (1230) 
93.816794

>  <N_hits>  (1230) 
2

>  <submitter_name>  (1230) 
nan

>  <original SMILES>  (1230) 
nan

>  <∆G_unbound>  (1230) 
1.407194

>  <∆G_bound>  (1230) 
-7.042653

>  <regarded>  (1230) 
mArh-5cb5_B_0_B_γ,mArh-6fx_7_0A_α

>  <ref_pdb>  (1230) 
nan

>  <smiles>  (1230) 
OC1COC(CCCCCCC2OC(O)C(O)C2O)C1O

>  <submitter_email>  (1230) 
nan

>  <disregarded>  (1230) 


>  <LE>  (1230) 
-0.402374

>  <submitter_institution>  (1230) 
nan

>  <ref_mols>  (1230) 
mArh-5cb5_B_0_B,mArh-6fx_7_0A

>  <N_constrained_atoms>  (1230) 
17.0

>  <ref_url>  (1230) 
nan

>  <method>  (1230) 
nan

>  <comRMSD>  (1230) 
4.287604

>  <N_unconstrained_atoms>  (1230) 
4.0

>  <∆∆G>  (1230) 
-8.449847

>  <runtime>  (1230) 
46.760989

>  <generation_date>  (1230) 
nan

$$$$
5CMS_0_E_γ-5CMS_0_B_α
     RDKit          3D

 21 22  0  0  0  0  0  0  0  0999 V2000
   -0.6550   12.0810   -4.1480 O   0  0  0  0  0  0  0  0  0  0  0  0
   -0.9390   13.4650   -4.2400 C   0  0  1  0  0  0  0  0  0  0  0  0
   -0.6530   14.2340   -2.9500 C   0  0  0  0  0  0  0  0  0  0  0  0
   -0.0230   14.1710   -5.2220 C   0  0  2  0  0  0  0  0  0  0  0  0
    1.3040   13.6690   -5.0640 O   0  0  0  0  0  0  0  0  0  0  0  0
   -0.1240   15.5200   -3.3410 O   0  0  0  0  0  0  0  0  0  0  0  0
   -0.3140   15.6060   -4.7660 C   0  0  1  0  0  0  0  0  0  0  0  0
    0.4520   16.8120   -5.3470 C   0  0  0  0  0  0  0  0  0  0  0  0
   -0.4300   17.9280   -5.9680 C   0  0  0  0  0  0  0  0  0  0  0  0
    0.2680   18.8710   -6.9760 C   0  0  0  0  0  0  0  0  0  0  0  0
   -0.6640   19.8230   -7.7760 C   0  0  0  0  0  0  0  0  0  0  0  0
   -2.0690   20.0900   -7.2040 C   0  0  0  0  0  0  0  0  0  0  0  0
   -2.8500   21.2840   -7.8430 C   0  0  0  0  0  0  0  0  0  0  0  0
   -2.5600   21.5780   -9.3230 C   0  0  2  0  0  0  0  0  0  0  0  0
   -1.5800   22.5440   -9.2150 O   0  0  0  0  0  0  0  0  0  0  0  0
   -3.6190   22.2650  -10.2210 C   0  0  1  0  0  0  0  0  0  0  0  0
   -4.9520   21.9460  -10.0310 O   0  0  0  0  0  0  0  0  0  0  0  0
   -2.3030   23.6860   -8.9100 C   0  0  2  0  0  0  0  0  0  0  0  0
   -3.5060   23.7190   -9.8780 C   0  0  1  0  0  0  0  0  0  0  0  0
   -1.3860   24.7220   -9.0040 O   0  0  0  0  0  0  0  0  0  0  0  0
   -3.5270   24.5570  -11.0450 O   0  0  0  0  0  0  0  0  0  0  0  0
  2  1  1  1
  2  3  1  0
  2  4  1  0
  4  5  1  1
  3  6  1  0
  4  7  1  0
  6  7  1  0
  7  8  1  6
  8  9  1  0
  9 10  1  0
 10 11  1  0
 11 12  1  0
 12 13  1  0
 14 13  1  1
 14 15  1  0
 14 16  1  0
 16 17  1  1
 15 18  1  0
 16 19  1  0
 18 19  1  0
 18 20  1  6
 19 21  1  6
M  END
>  <%Rank>  (1231) 
93.89313

>  <N_hits>  (1231) 
2

>  <submitter_name>  (1231) 
nan

>  <original SMILES>  (1231) 
nan

>  <∆G_unbound>  (1231) 
1.407194

>  <∆G_bound>  (1231) 
-5.230448

>  <regarded>  (1231) 
5CMS_0_E_γ,5CMS_0_B_α

>  <ref_pdb>  (1231) 
nan

>  <smiles>  (1231) 
OC1COC(CCCCCCC2OC(O)C(O)C2O)C1O

>  <submitter_email>  (1231) 
nan

>  <disregarded>  (1231) 


>  <LE>  (1231) 
-0.316078

>  <submitter_institution>  (1231) 
nan

>  <ref_mols>  (1231) 
5CMS_0_E,5CMS_0_B

>  <N_constrained_atoms>  (1231) 
17.0

>  <ref_url>  (1231) 
nan

>  <method>  (1231) 
nan

>  <comRMSD>  (1231) 
4.253795

>  <N_unconstrained_atoms>  (1231) 
4.0

>  <∆∆G>  (1231) 
-6.637642

>  <runtime>  (1231) 
46.364969

>  <generation_date>  (1231) 
nan

$$$$
5CB5_0_Q_γ-mArh-5cms_M_12_M_α
     RDKit          3D

 21 22  0  0  0  0  0  0  0  0999 V2000
   -0.5280   12.6780   -4.0600 O   0  0  0  0  0  0  0  0  0  0  0  0
   -0.7400   14.0620   -4.2590 C   0  0  1  0  0  0  0  0  0  0  0  0
   -0.4900   14.9070   -3.0200 C   0  0  0  0  0  0  0  0  0  0  0  0
    0.2620   14.6820   -5.2100 C   0  0  2  0  0  0  0  0  0  0  0  0
    1.5840   14.2780   -4.8700 O   0  0  0  0  0  0  0  0  0  0  0  0
   -0.0640   16.1990   -3.5000 O   0  0  0  0  0  0  0  0  0  0  0  0
   -0.0990   16.1380   -4.9330 C   0  0  1  0  0  0  0  0  0  0  0  0
    0.7540   17.2680   -5.4950 C   0  0  0  0  0  0  0  0  0  0  0  0
   -0.0100   18.3870   -6.2130 C   0  0  0  0  0  0  0  0  0  0  0  0
   -1.3000   18.8290   -5.4900 C   0  0  0  0  0  0  0  0  0  0  0  0
   -1.8650   20.1660   -6.0070 C   0  0  0  0  0  0  0  0  0  0  0  0
   -2.4460   20.0800   -7.3970 C   0  0  0  0  0  0  0  0  0  0  0  0
   -3.3990   21.2290   -7.7890 C   0  0  0  0  0  0  0  0  0  0  0  0
   -3.0180   22.0060   -9.0550 C   0  0  1  0  0  0  0  0  0  0  0  0
   -3.6510   21.5130  -10.2540 O   0  0  0  0  0  0  0  0  0  0  0  0
   -3.4280   23.4540   -8.9360 C   0  0  1  0  0  0  0  0  0  0  0  0
   -2.3070   24.2110   -8.6010 O   0  0  0  0  0  0  0  0  0  0  0  0
   -4.4930   22.4970  -10.8900 C   0  0  2  0  0  0  0  0  0  0  0  0
   -4.3100   23.8230  -10.1760 C   0  0  2  0  0  0  0  0  0  0  0  0
   -5.8590   22.1740  -10.8270 O   0  0  0  0  0  0  0  0  0  0  0  0
   -3.8860   24.8740  -11.0700 O   0  0  0  0  0  0  0  0  0  0  0  0
  2  1  1  1
  2  3  1  0
  2  4  1  0
  4  5  1  1
  3  6  1  0
  4  7  1  0
  6  7  1  0
  7  8  1  6
  8  9  1  0
  9 10  1  0
 10 11  1  0
 11 12  1  0
 12 13  1  0
 14 13  1  1
 14 15  1  0
 14 16  1  0
 16 17  1  6
 15 18  1  0
 16 19  1  0
 18 19  1  0
 18 20  1  1
 19 21  1  6
M  END
>  <%Rank>  (1232) 
93.969466

>  <N_hits>  (1232) 
2

>  <submitter_name>  (1232) 
nan

>  <original SMILES>  (1232) 
nan

>  <∆G_unbound>  (1232) 
1.407194

>  <∆G_bound>  (1232) 
-3.230338

>  <regarded>  (1232) 
5CB5_0_Q_γ,mArh-5cms_M_12_M_α

>  <ref_pdb>  (1232) 
nan

>  <smiles>  (1232) 
OC1COC(CCCCCCC2OC(O)C(O)C2O)C1O

>  <submitter_email>  (1232) 
nan

>  <disregarded>  (1232) 


>  <LE>  (1232) 
-0.220835

>  <submitter_institution>  (1232) 
nan

>  <ref_mols>  (1232) 
5CB5_0_Q,mArh-5cms_M_12_M

>  <N_constrained_atoms>  (1232) 
17.0

>  <ref_url>  (1232) 
nan

>  <method>  (1232) 
nan

>  <comRMSD>  (1232) 
4.211329

>  <N_unconstrained_atoms>  (1232) 
4.0

>  <∆∆G>  (1232) 
-4.637532

>  <runtime>  (1232) 
40.642323

>  <generation_date>  (1232) 
nan

$$$$
mArh-6mea_A_0_A_γ-5CB5_0_R_α
     RDKit          3D

 21 22  0  0  0  0  0  0  0  0999 V2000
   -0.9180   12.3580   -4.1540 O   0  0  0  0  0  0  0  0  0  0  0  0
   -1.0320   13.7610   -4.1140 C   0  0  1  0  0  0  0  0  0  0  0  0
   -0.6220   14.3860   -2.7860 C   0  0  0  0  0  0  0  0  0  0  0  0
   -0.0450   14.3980   -5.0560 C   0  0  2  0  0  0  0  0  0  0  0  0
    1.2190   13.7390   -4.9440 O   0  0  0  0  0  0  0  0  0  0  0  0
   -0.0210   15.6570   -3.1060 O   0  0  0  0  0  0  0  0  0  0  0  0
   -0.1290   15.8220   -4.5390 C   0  0  1  0  0  0  0  0  0  0  0  0
    0.9230   16.8080   -5.0130 C   0  0  0  0  0  0  0  0  0  0  0  0
    0.4750   18.2260   -5.3670 C   0  0  0  0  0  0  0  0  0  0  0  0
    0.0630   18.4890   -6.8310 C   0  0  0  0  0  0  0  0  0  0  0  0
   -0.3590   19.9460   -7.0670 C   0  0  0  0  0  0  0  0  0  0  0  0
   -1.4730   20.2120   -8.0550 C   0  0  0  0  0  0  0  0  0  0  0  0
   -1.9890   21.6660   -8.0070 C   0  0  0  0  0  0  0  0  0  0  0  0
   -3.3770   21.8670   -8.6470 C   0  0  1  0  0  0  0  0  0  0  0  0
   -4.2760   20.8970   -8.0760 O   0  0  0  0  0  0  0  0  0  0  0  0
   -3.9780   23.2630   -8.4070 C   0  0  1  0  0  0  0  0  0  0  0  0
   -4.3410   23.9880   -9.5670 O   0  0  0  0  0  0  0  0  0  0  0  0
   -5.3460   21.5420   -7.4020 C   0  0  2  0  0  0  0  0  0  0  0  0
   -5.2220   23.0540   -7.5710 C   0  0  1  0  0  0  0  0  0  0  0  0
   -5.3160   21.2290   -6.0210 O   0  0  0  0  0  0  0  0  0  0  0  0
   -5.1880   23.7780   -6.3470 O   0  0  0  0  0  0  0  0  0  0  0  0
  2  1  1  1
  2  3  1  0
  2  4  1  0
  4  5  1  1
  3  6  1  0
  4  7  1  0
  6  7  1  0
  7  8  1  6
  8  9  1  0
  9 10  1  0
 10 11  1  0
 11 12  1  0
 12 13  1  0
 14 13  1  1
 14 15  1  0
 14 16  1  0
 16 17  1  6
 15 18  1  0
 16 19  1  0
 18 19  1  0
 18 20  1  1
 19 21  1  1
M  END
>  <%Rank>  (1233) 
94.045802

>  <N_hits>  (1233) 
2

>  <submitter_name>  (1233) 
nan

>  <original SMILES>  (1233) 
nan

>  <∆G_unbound>  (1233) 
1.407194

>  <∆G_bound>  (1233) 
-12.037098

>  <regarded>  (1233) 
mArh-6mea_A_0_A_γ,5CB5_0_R_α

>  <ref_pdb>  (1233) 
nan

>  <smiles>  (1233) 
OC1COC(CCCCCCC2OC(O)C(O)C2O)C1O

>  <submitter_email>  (1233) 
nan

>  <disregarded>  (1233) 


>  <LE>  (1233) 
-0.640204

>  <submitter_institution>  (1233) 
nan

>  <ref_mols>  (1233) 
mArh-6mea_A_0_A,5CB5_0_R

>  <N_constrained_atoms>  (1233) 
17.0

>  <ref_url>  (1233) 
nan

>  <method>  (1233) 
nan

>  <comRMSD>  (1233) 
4.425352

>  <N_unconstrained_atoms>  (1233) 
4.0

>  <∆∆G>  (1233) 
-13.444292

>  <runtime>  (1233) 
40.820098

>  <generation_date>  (1233) 
nan

$$$$
5CMS_0_F_γ-5CB5_0_C_α
     RDKit          3D

 21 22  0  0  0  0  0  0  0  0999 V2000
   -0.7700   12.2070   -4.1980 O   0  0  0  0  0  0  0  0  0  0  0  0
   -0.9540   13.6050   -4.2280 C   0  0  1  0  0  0  0  0  0  0  0  0
   -0.6150   14.3070   -2.9170 C   0  0  0  0  0  0  0  0  0  0  0  0
    0.0270   14.2670   -5.1660 C   0  0  2  0  0  0  0  0  0  0  0  0
    1.3240   13.7130   -4.9560 O   0  0  0  0  0  0  0  0  0  0  0  0
   -0.0810   15.5950   -3.2750 O   0  0  0  0  0  0  0  0  0  0  0  0
   -0.1900   15.7020   -4.7100 C   0  0  1  0  0  0  0  0  0  0  0  0
    0.7620   16.7850   -5.1890 C   0  0  0  0  0  0  0  0  0  0  0  0
    0.1860   18.1950   -5.3220 C   0  0  0  0  0  0  0  0  0  0  0  0
    0.2180   18.8380   -6.7280 C   0  0  0  0  0  0  0  0  0  0  0  0
   -1.1150   19.5170   -7.1080 C   0  0  0  0  0  0  0  0  0  0  0  0
   -1.0300   20.6090   -8.1920 C   0  0  0  0  0  0  0  0  0  0  0  0
   -1.8530   21.8800   -7.8680 C   0  0  0  0  0  0  0  0  0  0  0  0
   -3.2600   21.9620   -8.5090 C   0  0  1  0  0  0  0  0  0  0  0  0
   -4.1060   20.9730   -7.8840 O   0  0  0  0  0  0  0  0  0  0  0  0
   -3.9350   23.3360   -8.3100 C   0  0  1  0  0  0  0  0  0  0  0  0
   -4.2620   24.0400   -9.4890 O   0  0  0  0  0  0  0  0  0  0  0  0
   -5.3140   21.5780   -7.4200 C   0  0  2  0  0  0  0  0  0  0  0  0
   -5.2170   23.0870   -7.5520 C   0  0  1  0  0  0  0  0  0  0  0  0
   -5.5160   21.2940   -6.0490 O   0  0  0  0  0  0  0  0  0  0  0  0
   -5.2540   23.7870   -6.3120 O   0  0  0  0  0  0  0  0  0  0  0  0
  2  1  1  1
  2  3  1  0
  2  4  1  0
  4  5  1  1
  3  6  1  0
  4  7  1  0
  6  7  1  0
  7  8  1  6
  8  9  1  0
  9 10  1  0
 10 11  1  0
 11 12  1  0
 12 13  1  0
 14 13  1  1
 14 15  1  0
 14 16  1  0
 16 17  1  6
 15 18  1  0
 16 19  1  0
 18 19  1  0
 18 20  1  1
 19 21  1  1
M  END
>  <%Rank>  (1234) 
94.122137

>  <N_hits>  (1234) 
2

>  <submitter_name>  (1234) 
nan

>  <original SMILES>  (1234) 
nan

>  <∆G_unbound>  (1234) 
1.407194

>  <∆G_bound>  (1234) 
-12.838877

>  <regarded>  (1234) 
5CMS_0_F_γ,5CB5_0_C_α

>  <ref_pdb>  (1234) 
nan

>  <smiles>  (1234) 
OC1COC(CCCCCCC2OC(O)C(O)C2O)C1O

>  <submitter_email>  (1234) 
nan

>  <disregarded>  (1234) 


>  <LE>  (1234) 
-0.678384

>  <submitter_institution>  (1234) 
nan

>  <ref_mols>  (1234) 
5CMS_0_F,5CB5_0_C

>  <N_constrained_atoms>  (1234) 
17.0

>  <ref_url>  (1234) 
nan

>  <method>  (1234) 
nan

>  <comRMSD>  (1234) 
4.445268

>  <N_unconstrained_atoms>  (1234) 
4.0

>  <∆∆G>  (1234) 
-14.246071

>  <runtime>  (1234) 
39.246881

>  <generation_date>  (1234) 
nan

$$$$
5CMS_0_E_γ-5CB5_0_B_α
     RDKit          3D

 21 22  0  0  0  0  0  0  0  0999 V2000
   -0.7090   12.0130   -4.2040 O   0  0  0  0  0  0  0  0  0  0  0  0
   -0.9660   13.4030   -4.2980 C   0  0  1  0  0  0  0  0  0  0  0  0
   -0.7530   14.1480   -2.9850 C   0  0  0  0  0  0  0  0  0  0  0  0
    0.0290   14.0880   -5.2130 C   0  0  2  0  0  0  0  0  0  0  0  0
    1.3250   13.5330   -5.0030 O   0  0  0  0  0  0  0  0  0  0  0  0
   -0.1950   15.4330   -3.3210 O   0  0  0  0  0  0  0  0  0  0  0  0
   -0.2110   15.5310   -4.7590 C   0  0  1  0  0  0  0  0  0  0  0  0
    0.7530   16.6410   -5.1840 C   0  0  0  0  0  0  0  0  0  0  0  0
    0.1500   18.0560   -5.2810 C   0  0  0  0  0  0  0  0  0  0  0  0
    0.2270   18.7590   -6.6560 C   0  0  0  0  0  0  0  0  0  0  0  0
   -1.0920   19.4650   -7.0600 C   0  0  0  0  0  0  0  0  0  0  0  0
   -0.9820   20.5440   -8.1590 C   0  0  0  0  0  0  0  0  0  0  0  0
   -1.7460   21.8520   -7.8330 C   0  0  0  0  0  0  0  0  0  0  0  0
   -3.1000   22.0610   -8.5530 C   0  0  1  0  0  0  0  0  0  0  0  0
   -4.0480   21.1880   -7.9500 O   0  0  0  0  0  0  0  0  0  0  0  0
   -3.6990   23.4680   -8.3910 C   0  0  1  0  0  0  0  0  0  0  0  0
   -4.4780   23.9600   -9.4720 O   0  0  0  0  0  0  0  0  0  0  0  0
   -5.0890   21.9440   -7.3260 C   0  0  2  0  0  0  0  0  0  0  0  0
   -4.5360   23.3290   -7.1300 C   0  0  2  0  0  0  0  0  0  0  0  0
   -5.4250   21.4290   -6.0470 O   0  0  0  0  0  0  0  0  0  0  0  0
   -5.5910   24.2750   -7.0040 O   0  0  0  0  0  0  0  0  0  0  0  0
  2  1  1  1
  2  3  1  0
  2  4  1  0
  4  5  1  1
  3  6  1  0
  4  7  1  0
  6  7  1  0
  7  8  1  1
  8  9  1  0
  9 10  1  0
 10 11  1  0
 11 12  1  0
 12 13  1  0
 14 13  1  1
 14 15  1  0
 14 16  1  0
 16 17  1  6
 15 18  1  0
 16 19  1  0
 18 19  1  0
 18 20  1  1
 19 21  1  6
M  END
>  <%Rank>  (1235) 
94.198473

>  <N_hits>  (1235) 
2

>  <submitter_name>  (1235) 
nan

>  <original SMILES>  (1235) 
nan

>  <∆G_unbound>  (1235) 
1.407194

>  <∆G_bound>  (1235) 
-12.617868

>  <regarded>  (1235) 
5CMS_0_E_γ,5CB5_0_B_α

>  <ref_pdb>  (1235) 
nan

>  <smiles>  (1235) 
OC1COC(CCCCCCC2OC(O)C(O)C2O)C1O

>  <submitter_email>  (1235) 
nan

>  <disregarded>  (1235) 


>  <LE>  (1235) 
-0.66786

>  <submitter_institution>  (1235) 
nan

>  <ref_mols>  (1235) 
5CMS_0_E,5CB5_0_B

>  <N_constrained_atoms>  (1235) 
17.0

>  <ref_url>  (1235) 
nan

>  <method>  (1235) 
nan

>  <comRMSD>  (1235) 
4.44197

>  <N_unconstrained_atoms>  (1235) 
4.0

>  <∆∆G>  (1235) 
-14.025062

>  <runtime>  (1235) 
46.077993

>  <generation_date>  (1235) 
nan

$$$$
5CMS_0_I_γ-2BFQ_1_A_α
     RDKit          3D

 21 22  0  0  0  0  0  0  0  0999 V2000
   -1.2440   12.5100   -4.4570 O   0  0  0  0  0  0  0  0  0  0  0  0
   -1.1870   13.9160   -4.3910 C   0  0  1  0  0  0  0  0  0  0  0  0
   -0.8040   14.4870   -3.0360 C   0  0  0  0  0  0  0  0  0  0  0  0
   -0.0530   14.4520   -5.2190 C   0  0  2  0  0  0  0  0  0  0  0  0
    1.1520   13.7540   -4.9160 O   0  0  0  0  0  0  0  0  0  0  0  0
   -0.1670   15.7520   -3.3230 O   0  0  0  0  0  0  0  0  0  0  0  0
   -0.1590   15.9040   -4.7650 C   0  0  1  0  0  0  0  0  0  0  0  0
    0.9660   16.8510   -5.1460 C   0  0  0  0  0  0  0  0  0  0  0  0
    0.7060   18.1200   -5.9810 C   0  0  0  0  0  0  0  0  0  0  0  0
   -0.7400   18.5690   -6.2310 C   0  0  0  0  0  0  0  0  0  0  0  0
   -0.7780   20.0200   -6.7670 C   0  0  0  0  0  0  0  0  0  0  0  0
   -1.6960   20.3090   -7.9230 C   0  0  0  0  0  0  0  0  0  0  0  0
   -1.9590   21.8000   -8.2340 C   0  0  0  0  0  0  0  0  0  0  0  0
   -3.0830   22.3910   -7.3990 C   0  0  2  0  0  0  0  0  0  0  0  0
   -4.1350   21.4550   -7.4530 O   0  0  0  0  0  0  0  0  0  0  0  0
   -3.7850   23.7180   -7.7590 C   0  0  1  0  0  0  0  0  0  0  0  0
   -4.0460   24.0190   -9.1220 O   0  0  0  0  0  0  0  0  0  0  0  0
   -5.0690   22.0800   -6.6120 C   0  0  1  0  0  0  0  0  0  0  0  0
   -5.1250   23.5330   -7.0730 C   0  0  1  0  0  0  0  0  0  0  0  0
   -6.3200   21.4630   -6.7550 O   0  0  0  0  0  0  0  0  0  0  0  0
   -5.3650   24.4400   -6.0220 O   0  0  0  0  0  0  0  0  0  0  0  0
  2  1  1  1
  2  3  1  0
  2  4  1  0
  4  5  1  1
  3  6  1  0
  4  7  1  0
  6  7  1  0
  7  8  1  1
  8  9  1  0
  9 10  1  0
 10 11  1  0
 11 12  1  0
 12 13  1  0
 14 13  1  6
 14 15  1  0
 14 16  1  0
 16 17  1  6
 15 18  1  0
 16 19  1  0
 18 19  1  0
 18 20  1  6
 19 21  1  1
M  END
>  <%Rank>  (1236) 
94.274809

>  <N_hits>  (1236) 
2

>  <submitter_name>  (1236) 
nan

>  <original SMILES>  (1236) 
nan

>  <∆G_unbound>  (1236) 
1.407194

>  <∆G_bound>  (1236) 
-11.626847

>  <regarded>  (1236) 
5CMS_0_I_γ,2BFQ_1_A_α

>  <ref_pdb>  (1236) 
nan

>  <smiles>  (1236) 
OC1COC(CCCCCCC2OC(O)C(O)C2O)C1O

>  <submitter_email>  (1236) 
nan

>  <disregarded>  (1236) 


>  <LE>  (1236) 
-0.620669

>  <submitter_institution>  (1236) 
nan

>  <ref_mols>  (1236) 
5CMS_0_I,2BFQ_1_A

>  <N_constrained_atoms>  (1236) 
17.0

>  <ref_url>  (1236) 
nan

>  <method>  (1236) 
nan

>  <comRMSD>  (1236) 
4.419659

>  <N_unconstrained_atoms>  (1236) 
4.0

>  <∆∆G>  (1236) 
-13.034041

>  <runtime>  (1236) 
41.195401

>  <generation_date>  (1236) 
nan

$$$$
mArh-5cms_K_10_K_γ-2BFQ_1_A_α
     RDKit          3D

 21 22  0  0  0  0  0  0  0  0999 V2000
   -0.7500   12.2190   -4.1750 O   0  0  0  0  0  0  0  0  0  0  0  0
   -0.9250   13.6170   -4.3050 C   0  0  1  0  0  0  0  0  0  0  0  0
   -0.6920   14.3830   -3.0100 C   0  0  0  0  0  0  0  0  0  0  0  0
    0.1230   14.2390   -5.2060 C   0  0  2  0  0  0  0  0  0  0  0  0
    1.4030   13.6890   -4.8980 O   0  0  0  0  0  0  0  0  0  0  0  0
   -0.1290   15.6560   -3.3850 O   0  0  0  0  0  0  0  0  0  0  0  0
   -0.1420   15.6980   -4.8260 C   0  0  1  0  0  0  0  0  0  0  0  0
    0.8160   16.7930   -5.2830 C   0  0  0  0  0  0  0  0  0  0  0  0
    0.2470   18.2120   -5.4740 C   0  0  0  0  0  0  0  0  0  0  0  0
   -0.2350   18.5970   -6.8900 C   0  0  0  0  0  0  0  0  0  0  0  0
   -1.3090   19.7080   -6.9250 C   0  0  0  0  0  0  0  0  0  0  0  0
   -1.1570   20.7150   -8.0800 C   0  0  0  0  0  0  0  0  0  0  0  0
   -1.5790   22.1670   -7.7640 C   0  0  0  0  0  0  0  0  0  0  0  0
   -3.0130   22.4350   -7.2660 C   0  0  2  0  0  0  0  0  0  0  0  0
   -3.9950   21.5050   -7.6900 O   0  0  0  0  0  0  0  0  0  0  0  0
   -3.6820   23.7590   -7.6540 C   0  0  1  0  0  0  0  0  0  0  0  0
   -3.8990   24.0510   -9.0200 O   0  0  0  0  0  0  0  0  0  0  0  0
   -5.1230   22.0300   -6.9700 C   0  0  1  0  0  0  0  0  0  0  0  0
   -5.0420   23.5510   -7.0640 C   0  0  1  0  0  0  0  0  0  0  0  0
   -6.3450   21.6380   -7.5510 O   0  0  0  0  0  0  0  0  0  0  0  0
   -5.2360   24.2380   -5.8560 O   0  0  0  0  0  0  0  0  0  0  0  0
  2  1  1  1
  2  3  1  0
  2  4  1  0
  4  5  1  1
  3  6  1  0
  4  7  1  0
  6  7  1  0
  7  8  1  6
  8  9  1  0
  9 10  1  0
 10 11  1  0
 11 12  1  0
 12 13  1  0
 14 13  1  6
 14 15  1  0
 14 16  1  0
 16 17  1  6
 15 18  1  0
 16 19  1  0
 18 19  1  0
 18 20  1  6
 19 21  1  1
M  END
>  <%Rank>  (1237) 
94.351145

>  <N_hits>  (1237) 
2

>  <submitter_name>  (1237) 
nan

>  <original SMILES>  (1237) 
nan

>  <∆G_unbound>  (1237) 
1.407194

>  <∆G_bound>  (1237) 
-11.532637

>  <regarded>  (1237) 
mArh-5cms_K_10_K_γ,2BFQ_1_A_α

>  <ref_pdb>  (1237) 
nan

>  <smiles>  (1237) 
OC1COC(CCCCCCC2OC(O)C(O)C2O)C1O

>  <submitter_email>  (1237) 
nan

>  <disregarded>  (1237) 


>  <LE>  (1237) 
-0.616182

>  <submitter_institution>  (1237) 
nan

>  <ref_mols>  (1237) 
mArh-5cms_K_10_K,2BFQ_1_A

>  <N_constrained_atoms>  (1237) 
17.0

>  <ref_url>  (1237) 
nan

>  <method>  (1237) 
nan

>  <comRMSD>  (1237) 
4.419714

>  <N_unconstrained_atoms>  (1237) 
4.0

>  <∆∆G>  (1237) 
-12.939831

>  <runtime>  (1237) 
49.16501

>  <generation_date>  (1237) 
nan

$$$$
mArh-5cb5_F_1_F_γ-mArh-5cb3_0_A_α
     RDKit          3D

 21 22  0  0  0  0  0  0  0  0999 V2000
   -0.9000   12.4790   -4.1760 O   0  0  0  0  0  0  0  0  0  0  0  0
   -1.0070   13.8850   -4.2450 C   0  0  1  0  0  0  0  0  0  0  0  0
   -0.6390   14.6000   -2.9610 C   0  0  0  0  0  0  0  0  0  0  0  0
    0.0080   14.4680   -5.1940 C   0  0  2  0  0  0  0  0  0  0  0  0
    1.2810   13.8510   -5.0040 O   0  0  0  0  0  0  0  0  0  0  0  0
   -0.1560   15.8980   -3.3540 O   0  0  0  0  0  0  0  0  0  0  0  0
   -0.1150   15.9410   -4.8000 C   0  0  1  0  0  0  0  0  0  0  0  0
    1.0250   16.8580   -5.1850 C   0  0  0  0  0  0  0  0  0  0  0  0
    0.7920   18.1500   -5.9790 C   0  0  0  0  0  0  0  0  0  0  0  0
   -0.6340   18.7010   -6.0390 C   0  0  0  0  0  0  0  0  0  0  0  0
   -0.6720   20.0320   -6.8180 C   0  0  0  0  0  0  0  0  0  0  0  0
   -1.5740   20.0190   -8.0110 C   0  0  0  0  0  0  0  0  0  0  0  0
   -1.9970   21.3890   -8.5820 C   0  0  0  0  0  0  0  0  0  0  0  0
   -3.1490   22.0130   -7.8000 C   0  0  2  0  0  0  0  0  0  0  0  0
   -4.3620   21.3480   -8.0780 O   0  0  0  0  0  0  0  0  0  0  0  0
   -3.6200   23.4460   -8.0130 C   0  0  1  0  0  0  0  0  0  0  0  0
   -4.2530   23.8060   -9.2410 O   0  0  0  0  0  0  0  0  0  0  0  0
   -5.2760   22.0140   -7.2010 C   0  0  2  0  0  0  0  0  0  0  0  0
   -4.6370   23.3660   -6.8880 C   0  0  2  0  0  0  0  0  0  0  0  0
   -5.4230   21.3320   -5.9670 O   0  0  0  0  0  0  0  0  0  0  0  0
   -5.6090   24.3900   -6.8530 O   0  0  0  0  0  0  0  0  0  0  0  0
  2  1  1  1
  2  3  1  0
  2  4  1  0
  4  5  1  1
  3  6  1  0
  4  7  1  0
  6  7  1  0
  7  8  1  1
  8  9  1  0
  9 10  1  0
 10 11  1  0
 11 12  1  0
 12 13  1  0
 14 13  1  6
 14 15  1  0
 14 16  1  0
 16 17  1  6
 15 18  1  0
 16 19  1  0
 18 19  1  0
 18 20  1  1
 19 21  1  6
M  END
>  <%Rank>  (1238) 
94.427481

>  <N_hits>  (1238) 
2

>  <submitter_name>  (1238) 
nan

>  <original SMILES>  (1238) 
nan

>  <∆G_unbound>  (1238) 
1.407194

>  <∆G_bound>  (1238) 
-11.14705

>  <regarded>  (1238) 
mArh-5cb5_F_1_F_γ,mArh-5cb3_0_A_α

>  <ref_pdb>  (1238) 
nan

>  <smiles>  (1238) 
OC1COC(CCCCCCC2OC(O)C(O)C2O)C1O

>  <submitter_email>  (1238) 
nan

>  <disregarded>  (1238) 


>  <LE>  (1238) 
-0.597821

>  <submitter_institution>  (1238) 
nan

>  <ref_mols>  (1238) 
mArh-5cb5_F_1_F,mArh-5cb3_0_A

>  <N_constrained_atoms>  (1238) 
17.0

>  <ref_url>  (1238) 
nan

>  <method>  (1238) 
nan

>  <comRMSD>  (1238) 
4.414851

>  <N_unconstrained_atoms>  (1238) 
4.0

>  <∆∆G>  (1238) 
-12.554244

>  <runtime>  (1238) 
37.608116

>  <generation_date>  (1238) 
nan

$$$$
5CMS_0_E_γ-5CB5_0_C_α
     RDKit          3D

 21 22  0  0  0  0  0  0  0  0999 V2000
   -0.7120   12.0070   -4.2220 O   0  0  0  0  0  0  0  0  0  0  0  0
   -0.9580   13.3960   -4.3010 C   0  0  1  0  0  0  0  0  0  0  0  0
   -0.7290   14.1250   -2.9810 C   0  0  0  0  0  0  0  0  0  0  0  0
    0.0320   14.0870   -5.2140 C   0  0  2  0  0  0  0  0  0  0  0  0
    1.3290   13.5350   -4.9990 O   0  0  0  0  0  0  0  0  0  0  0  0
   -0.1630   15.4060   -3.3090 O   0  0  0  0  0  0  0  0  0  0  0  0
   -0.2310   15.5160   -4.7450 C   0  0  1  0  0  0  0  0  0  0  0  0
    0.6430   16.6850   -5.2130 C   0  0  0  0  0  0  0  0  0  0  0  0
   -0.1080   18.0200   -5.3700 C   0  0  0  0  0  0  0  0  0  0  0  0
    0.0490   18.7740   -6.7110 C   0  0  0  0  0  0  0  0  0  0  0  0
   -1.2120   19.5880   -7.0870 C   0  0  0  0  0  0  0  0  0  0  0  0
   -1.0450   20.6600   -8.1820 C   0  0  0  0  0  0  0  0  0  0  0  0
   -1.7840   21.9890   -7.8770 C   0  0  0  0  0  0  0  0  0  0  0  0
   -3.2080   22.1290   -8.4680 C   0  0  1  0  0  0  0  0  0  0  0  0
   -4.0410   21.2430   -7.7290 O   0  0  0  0  0  0  0  0  0  0  0  0
   -3.8530   23.5230   -8.3240 C   0  0  1  0  0  0  0  0  0  0  0  0
   -4.2610   24.1200   -9.5340 O   0  0  0  0  0  0  0  0  0  0  0  0
   -5.2840   21.8700   -7.3980 C   0  0  2  0  0  0  0  0  0  0  0  0
   -5.1070   23.3570   -7.4850 C   0  0  1  0  0  0  0  0  0  0  0  0
   -5.6600   21.5370   -6.0680 O   0  0  0  0  0  0  0  0  0  0  0  0
   -5.0890   23.9910   -6.2180 O   0  0  0  0  0  0  0  0  0  0  0  0
  2  1  1  1
  2  3  1  0
  2  4  1  0
  4  5  1  1
  3  6  1  0
  4  7  1  0
  6  7  1  0
  7  8  1  6
  8  9  1  0
  9 10  1  0
 10 11  1  0
 11 12  1  0
 12 13  1  0
 14 13  1  1
 14 15  1  0
 14 16  1  0
 16 17  1  6
 15 18  1  0
 16 19  1  0
 18 19  1  0
 18 20  1  1
 19 21  1  1
M  END
>  <%Rank>  (1239) 
94.503817

>  <N_hits>  (1239) 
2

>  <submitter_name>  (1239) 
nan

>  <original SMILES>  (1239) 
nan

>  <∆G_unbound>  (1239) 
1.407194

>  <∆G_bound>  (1239) 
-12.76283

>  <regarded>  (1239) 
5CMS_0_E_γ,5CB5_0_C_α

>  <ref_pdb>  (1239) 
nan

>  <smiles>  (1239) 
OC1COC(CCCCCCC2OC(O)C(O)C2O)C1O

>  <submitter_email>  (1239) 
nan

>  <disregarded>  (1239) 


>  <LE>  (1239) 
-0.674763

>  <submitter_institution>  (1239) 
nan

>  <ref_mols>  (1239) 
5CMS_0_E,5CB5_0_C

>  <N_constrained_atoms>  (1239) 
17.0

>  <ref_url>  (1239) 
nan

>  <method>  (1239) 
nan

>  <comRMSD>  (1239) 
4.457694

>  <N_unconstrained_atoms>  (1239) 
4.0

>  <∆∆G>  (1239) 
-14.170024

>  <runtime>  (1239) 
39.500978

>  <generation_date>  (1239) 
nan

$$$$
mArh-5cb5_R_0_R_γ-5CB3_0_A_α
     RDKit          3D

 21 22  0  0  0  0  0  0  0  0999 V2000
   -0.8230   12.4520   -4.1440 O   0  0  0  0  0  0  0  0  0  0  0  0
   -0.9880   13.8520   -4.2220 C   0  0  1  0  0  0  0  0  0  0  0  0
   -0.7550   14.5670   -2.9000 C   0  0  0  0  0  0  0  0  0  0  0  0
    0.0820   14.4830   -5.0780 C   0  0  2  0  0  0  0  0  0  0  0  0
    1.3460   13.9030   -4.7610 O   0  0  0  0  0  0  0  0  0  0  0  0
   -0.1800   15.8480   -3.2270 O   0  0  0  0  0  0  0  0  0  0  0  0
   -0.1120   15.9350   -4.6640 C   0  0  1  0  0  0  0  0  0  0  0  0
    1.0120   16.8820   -5.0340 C   0  0  0  0  0  0  0  0  0  0  0  0
    0.7490   18.1180   -5.8980 C   0  0  0  0  0  0  0  0  0  0  0  0
   -0.6980   18.4230   -6.2920 C   0  0  0  0  0  0  0  0  0  0  0  0
   -0.7640   19.2620   -7.5830 C   0  0  0  0  0  0  0  0  0  0  0  0
   -0.8980   20.7720   -7.3690 C   0  0  0  0  0  0  0  0  0  0  0  0
   -1.8210   21.4990   -8.3620 C   0  0  0  0  0  0  0  0  0  0  0  0
   -3.1140   21.9800   -7.7070 C   0  0  2  0  0  0  0  0  0  0  0  0
   -4.1070   20.9630   -7.6710 O   0  0  0  0  0  0  0  0  0  0  0  0
   -3.8950   23.1770   -8.2670 C   0  0  1  0  0  0  0  0  0  0  0  0
   -4.2050   23.1800   -9.6490 O   0  0  0  0  0  0  0  0  0  0  0  0
   -5.0300   21.6470   -6.8470 C   0  0  1  0  0  0  0  0  0  0  0  0
   -5.1760   23.0470   -7.4470 C   0  0  1  0  0  0  0  0  0  0  0  0
   -6.2640   20.9890   -6.8010 O   0  0  0  0  0  0  0  0  0  0  0  0
   -5.3260   24.0560   -6.4590 O   0  0  0  0  0  0  0  0  0  0  0  0
  2  1  1  1
  2  3  1  0
  2  4  1  0
  4  5  1  1
  3  6  1  0
  4  7  1  0
  6  7  1  0
  7  8  1  1
  8  9  1  0
  9 10  1  0
 10 11  1  0
 11 12  1  0
 12 13  1  0
 14 13  1  6
 14 15  1  0
 14 16  1  0
 16 17  1  6
 15 18  1  0
 16 19  1  0
 18 19  1  0
 18 20  1  6
 19 21  1  1
M  END
>  <%Rank>  (1240) 
94.580153

>  <N_hits>  (1240) 
2

>  <submitter_name>  (1240) 
nan

>  <original SMILES>  (1240) 
nan

>  <∆G_unbound>  (1240) 
1.407194

>  <∆G_bound>  (1240) 
-11.672974

>  <regarded>  (1240) 
mArh-5cb5_R_0_R_γ,5CB3_0_A_α

>  <ref_pdb>  (1240) 
nan

>  <smiles>  (1240) 
OC1COC(CCCCCCC2OC(O)C(O)C2O)C1O

>  <submitter_email>  (1240) 
nan

>  <disregarded>  (1240) 


>  <LE>  (1240) 
-0.622865

>  <submitter_institution>  (1240) 
nan

>  <ref_mols>  (1240) 
mArh-5cb5_R_0_R,5CB3_0_A

>  <N_constrained_atoms>  (1240) 
17.0

>  <ref_url>  (1240) 
nan

>  <method>  (1240) 
nan

>  <comRMSD>  (1240) 
4.437091

>  <N_unconstrained_atoms>  (1240) 
4.0

>  <∆∆G>  (1240) 
-13.080168

>  <runtime>  (1240) 
32.260457

>  <generation_date>  (1240) 
nan

$$$$
mArh-5cb3_0_A_γ-6WOJ_0_D_α
     RDKit          3D

 21 22  0  0  0  0  0  0  0  0999 V2000
   -0.8910   12.4120   -4.2620 O   0  0  0  0  0  0  0  0  0  0  0  0
   -1.0420   13.8140   -4.1610 C   0  0  1  0  0  0  0  0  0  0  0  0
   -0.8010   14.3550   -2.7550 C   0  0  0  0  0  0  0  0  0  0  0  0
    0.0190   14.5640   -4.9400 C   0  0  2  0  0  0  0  0  0  0  0  0
    1.2950   13.9690   -4.6980 O   0  0  0  0  0  0  0  0  0  0  0  0
   -0.1720   15.6390   -2.9180 O   0  0  0  0  0  0  0  0  0  0  0  0
   -0.2690   15.9280   -4.3190 C   0  0  1  0  0  0  0  0  0  0  0  0
    0.5890   17.1450   -4.6410 C   0  0  0  0  0  0  0  0  0  0  0  0
    0.5330   17.5960   -6.0860 C   0  0  0  0  0  0  0  0  0  0  0  0
    0.1300   19.0330   -6.3910 C   0  0  0  0  0  0  0  0  0  0  0  0
   -0.7890   19.1960   -7.6100 C   0  0  0  0  0  0  0  0  0  0  0  0
   -0.7710   20.5710   -8.2990 C   0  0  0  0  0  0  0  0  0  0  0  0
   -1.4830   21.7410   -7.5750 C   0  0  0  0  0  0  0  0  0  0  0  0
   -2.9000   22.0370   -8.1180 C   0  0  1  0  0  0  0  0  0  0  0  0
   -3.8030   21.1840   -7.3860 O   0  0  0  0  0  0  0  0  0  0  0  0
   -3.4470   23.4790   -7.9410 C   0  0  1  0  0  0  0  0  0  0  0  0
   -4.2360   23.9470   -9.0390 O   0  0  0  0  0  0  0  0  0  0  0  0
   -4.8660   21.9890   -6.8830 C   0  0  2  0  0  0  0  0  0  0  0  0
   -4.2540   23.3540   -6.6540 C   0  0  2  0  0  0  0  0  0  0  0  0
   -5.3620   21.4950   -5.6480 O   0  0  0  0  0  0  0  0  0  0  0  0
   -5.2500   24.3560   -6.4520 O   0  0  0  0  0  0  0  0  0  0  0  0
  2  1  1  1
  2  3  1  0
  2  4  1  0
  4  5  1  1
  3  6  1  0
  4  7  1  0
  6  7  1  0
  7  8  1  6
  8  9  1  0
  9 10  1  0
 10 11  1  0
 11 12  1  0
 12 13  1  0
 14 13  1  1
 14 15  1  0
 14 16  1  0
 16 17  1  6
 15 18  1  0
 16 19  1  0
 18 19  1  0
 18 20  1  1
 19 21  1  6
M  END
>  <%Rank>  (1241) 
94.656489

>  <N_hits>  (1241) 
2

>  <submitter_name>  (1241) 
nan

>  <original SMILES>  (1241) 
nan

>  <∆G_unbound>  (1241) 
1.407194

>  <∆G_bound>  (1241) 
-12.790783

>  <regarded>  (1241) 
mArh-5cb3_0_A_γ,6WOJ_0_D_α

>  <ref_pdb>  (1241) 
nan

>  <smiles>  (1241) 
OC1COC(CCCCCCC2OC(O)C(O)C2O)C1O

>  <submitter_email>  (1241) 
nan

>  <disregarded>  (1241) 


>  <LE>  (1241) 
-0.676094

>  <submitter_institution>  (1241) 
nan

>  <ref_mols>  (1241) 
mArh-5cb3_0_A,6WOJ_0_D

>  <N_constrained_atoms>  (1241) 
17.0

>  <ref_url>  (1241) 
nan

>  <method>  (1241) 
nan

>  <comRMSD>  (1241) 
4.465235

>  <N_unconstrained_atoms>  (1241) 
4.0

>  <∆∆G>  (1241) 
-14.197977

>  <runtime>  (1241) 
45.910708

>  <generation_date>  (1241) 
nan

$$$$
5CB5_0_K_γ-5CB5_0_N_α
     RDKit          3D

 21 22  0  0  0  0  0  0  0  0999 V2000
   -0.4890   12.3890   -3.9470 O   0  0  0  0  0  0  0  0  0  0  0  0
   -0.9200   13.7160   -4.1930 C   0  0  1  0  0  0  0  0  0  0  0  0
   -0.8460   14.6060   -2.9640 C   0  0  0  0  0  0  0  0  0  0  0  0
   -0.0030   14.4310   -5.1710 C   0  0  2  0  0  0  0  0  0  0  0  0
    1.3400   14.0050   -4.9620 O   0  0  0  0  0  0  0  0  0  0  0  0
   -0.3430   15.8860   -3.3940 O   0  0  0  0  0  0  0  0  0  0  0  0
   -0.3380   15.8890   -4.8280 C   0  0  1  0  0  0  0  0  0  0  0  0
    0.5770   17.0200   -5.3200 C   0  0  0  0  0  0  0  0  0  0  0  0
    0.0580   17.8570   -6.5020 C   0  0  0  0  0  0  0  0  0  0  0  0
   -0.4690   19.2380   -6.2820 C   0  0  0  0  0  0  0  0  0  0  0  0
   -1.6320   19.5980   -7.2040 C   0  0  0  0  0  0  0  0  0  0  0  0
   -1.2820   20.6710   -8.2450 C   0  0  0  0  0  0  0  0  0  0  0  0
   -2.0310   21.9910   -8.0140 C   0  0  0  0  0  0  0  0  0  0  0  0
   -3.3110   22.1630   -8.8500 C   0  0  1  0  0  0  0  0  0  0  0  0
   -4.3190   21.3020   -8.3340 O   0  0  0  0  0  0  0  0  0  0  0  0
   -3.8750   23.5740   -8.7760 C   0  0  1  0  0  0  0  0  0  0  0  0
   -4.3160   24.1540   -9.9890 O   0  0  0  0  0  0  0  0  0  0  0  0
   -5.3970   22.0410   -7.7570 C   0  0  2  0  0  0  0  0  0  0  0  0
   -5.0420   23.5210   -7.8140 C   0  0  2  0  0  0  0  0  0  0  0  0
   -5.5980   21.6530   -6.3970 O   0  0  0  0  0  0  0  0  0  0  0  0
   -6.0910   24.3210   -8.3580 O   0  0  0  0  0  0  0  0  0  0  0  0
  2  1  1  1
  2  3  1  0
  2  4  1  0
  4  5  1  1
  3  6  1  0
  4  7  1  0
  6  7  1  0
  7  8  1  1
  8  9  1  0
  9 10  1  0
 10 11  1  0
 11 12  1  0
 12 13  1  0
 14 13  1  1
 14 15  1  0
 14 16  1  0
 16 17  1  6
 15 18  1  0
 16 19  1  0
 18 19  1  0
 18 20  1  1
 19 21  1  6
M  END
>  <%Rank>  (1242) 
94.732824

>  <N_hits>  (1242) 
2

>  <submitter_name>  (1242) 
nan

>  <original SMILES>  (1242) 
nan

>  <∆G_unbound>  (1242) 
1.407194

>  <∆G_bound>  (1242) 
-10.229416

>  <regarded>  (1242) 
5CB5_0_K_γ,5CB5_0_N_α

>  <ref_pdb>  (1242) 
nan

>  <smiles>  (1242) 
OC1COC(CCCCCCC2OC(O)C(O)C2O)C1O

>  <submitter_email>  (1242) 
nan

>  <disregarded>  (1242) 


>  <LE>  (1242) 
-0.554124

>  <submitter_institution>  (1242) 
nan

>  <ref_mols>  (1242) 
5CB5_0_K,5CB5_0_N

>  <N_constrained_atoms>  (1242) 
17.0

>  <ref_url>  (1242) 
nan

>  <method>  (1242) 
nan

>  <comRMSD>  (1242) 
4.404304

>  <N_unconstrained_atoms>  (1242) 
4.0

>  <∆∆G>  (1242) 
-11.63661

>  <runtime>  (1242) 
54.66371

>  <generation_date>  (1242) 
nan

$$$$
mArh-5cb5_B_0_B_γ-mArh-5cb5_I_0_I_α
     RDKit          3D

 21 22  0  0  0  0  0  0  0  0999 V2000
   -0.7040   12.4320   -4.0120 O   0  0  0  0  0  0  0  0  0  0  0  0
   -0.9940   13.8060   -4.1740 C   0  0  1  0  0  0  0  0  0  0  0  0
   -0.7120   14.6330   -2.9320 C   0  0  0  0  0  0  0  0  0  0  0  0
   -0.0580   14.4330   -5.1780 C   0  0  2  0  0  0  0  0  0  0  0  0
    1.2530   13.9060   -5.0120 O   0  0  0  0  0  0  0  0  0  0  0  0
   -0.2390   15.9130   -3.3870 O   0  0  0  0  0  0  0  0  0  0  0  0
   -0.2320   15.9070   -4.8320 C   0  0  1  0  0  0  0  0  0  0  0  0
    0.8670   16.8560   -5.2790 C   0  0  0  0  0  0  0  0  0  0  0  0
    0.5120   18.3190   -5.5340 C   0  0  0  0  0  0  0  0  0  0  0  0
   -0.5860   18.5880   -6.5760 C   0  0  0  0  0  0  0  0  0  0  0  0
   -0.2260   19.6500   -7.6360 C   0  0  0  0  0  0  0  0  0  0  0  0
   -1.4550   20.3590   -8.2220 C   0  0  0  0  0  0  0  0  0  0  0  0
   -1.6530   21.8460   -7.9000 C   0  0  0  0  0  0  0  0  0  0  0  0
   -3.1310   22.2270   -7.6410 C   0  0  2  0  0  0  0  0  0  0  0  0
   -4.0630   21.2700   -8.1120 O   0  0  0  0  0  0  0  0  0  0  0  0
   -3.7720   23.4610   -8.2650 C   0  0  1  0  0  0  0  0  0  0  0  0
   -3.9760   23.4550   -9.6620 O   0  0  0  0  0  0  0  0  0  0  0  0
   -5.3020   21.8330   -7.6230 C   0  0  2  0  0  0  0  0  0  0  0  0
   -5.1380   23.3430   -7.6330 C   0  0  1  0  0  0  0  0  0  0  0  0
   -5.5290   21.4160   -6.2800 O   0  0  0  0  0  0  0  0  0  0  0  0
   -5.2460   23.9230   -6.3450 O   0  0  0  0  0  0  0  0  0  0  0  0
  2  1  1  1
  2  3  1  0
  2  4  1  0
  4  5  1  1
  3  6  1  0
  4  7  1  0
  6  7  1  0
  7  8  1  1
  8  9  1  0
  9 10  1  0
 10 11  1  0
 11 12  1  0
 12 13  1  0
 14 13  1  6
 14 15  1  0
 14 16  1  0
 16 17  1  6
 15 18  1  0
 16 19  1  0
 18 19  1  0
 18 20  1  1
 19 21  1  1
M  END
>  <%Rank>  (1243) 
94.80916

>  <N_hits>  (1243) 
2

>  <submitter_name>  (1243) 
nan

>  <original SMILES>  (1243) 
nan

>  <∆G_unbound>  (1243) 
1.407194

>  <∆G_bound>  (1243) 
-11.074692

>  <regarded>  (1243) 
mArh-5cb5_B_0_B_γ,mArh-5cb5_I_0_I_α

>  <ref_pdb>  (1243) 
nan

>  <smiles>  (1243) 
OC1COC(CCCCCCC2OC(O)C(O)C2O)C1O

>  <submitter_email>  (1243) 
nan

>  <disregarded>  (1243) 


>  <LE>  (1243) 
-0.594375

>  <submitter_institution>  (1243) 
nan

>  <ref_mols>  (1243) 
mArh-5cb5_B_0_B,mArh-5cb5_I_0_I

>  <N_constrained_atoms>  (1243) 
17.0

>  <ref_url>  (1243) 
nan

>  <method>  (1243) 
nan

>  <comRMSD>  (1243) 
4.43085

>  <N_unconstrained_atoms>  (1243) 
4.0

>  <∆∆G>  (1243) 
-12.481885

>  <runtime>  (1243) 
38.067026

>  <generation_date>  (1243) 
nan

$$$$
mArh-5cb5_J_2_J_γ-mArh-5cb5_G_0_G_α
     RDKit          3D

 21 22  0  0  0  0  0  0  0  0999 V2000
   -0.4620   12.4270   -3.9310 O   0  0  0  0  0  0  0  0  0  0  0  0
   -0.8800   13.7720   -4.0470 C   0  0  1  0  0  0  0  0  0  0  0  0
   -0.6810   14.5670   -2.7650 C   0  0  0  0  0  0  0  0  0  0  0  0
   -0.0380   14.5510   -5.0450 C   0  0  2  0  0  0  0  0  0  0  0  0
    1.3190   14.1170   -4.9810 O   0  0  0  0  0  0  0  0  0  0  0  0
   -0.1700   15.8530   -3.1420 O   0  0  0  0  0  0  0  0  0  0  0  0
   -0.3230   15.9720   -4.5620 C   0  0  1  0  0  0  0  0  0  0  0  0
    0.5770   17.1150   -5.0260 C   0  0  0  0  0  0  0  0  0  0  0  0
    0.2120   17.7890   -6.3430 C   0  0  0  0  0  0  0  0  0  0  0  0
   -0.2860   19.2080   -6.3450 C   0  0  0  0  0  0  0  0  0  0  0  0
   -1.3870   19.4590   -7.3690 C   0  0  0  0  0  0  0  0  0  0  0  0
   -1.1490   20.6520   -8.2910 C   0  0  0  0  0  0  0  0  0  0  0  0
   -1.9940   21.8770   -7.9200 C   0  0  0  0  0  0  0  0  0  0  0  0
   -3.3320   21.9880   -8.6770 C   0  0  1  0  0  0  0  0  0  0  0  0
   -4.3040   21.1260   -8.0440 O   0  0  0  0  0  0  0  0  0  0  0  0
   -3.8840   23.4170   -8.6520 C   0  0  1  0  0  0  0  0  0  0  0  0
   -4.2830   23.9860   -9.8880 O   0  0  0  0  0  0  0  0  0  0  0  0
   -5.4300   21.8980   -7.6200 C   0  0  2  0  0  0  0  0  0  0  0  0
   -5.0770   23.3900   -7.7290 C   0  0  2  0  0  0  0  0  0  0  0  0
   -5.7340   21.6100   -6.2600 O   0  0  0  0  0  0  0  0  0  0  0  0
   -6.0980   24.1970   -8.3230 O   0  0  0  0  0  0  0  0  0  0  0  0
  2  1  1  1
  2  3  1  0
  2  4  1  0
  4  5  1  1
  3  6  1  0
  4  7  1  0
  6  7  1  0
  7  8  1  6
  8  9  1  0
  9 10  1  0
 10 11  1  0
 11 12  1  0
 12 13  1  0
 14 13  1  1
 14 15  1  0
 14 16  1  0
 16 17  1  6
 15 18  1  0
 16 19  1  0
 18 19  1  0
 18 20  1  1
 19 21  1  6
M  END
>  <%Rank>  (1244) 
94.885496

>  <N_hits>  (1244) 
2

>  <submitter_name>  (1244) 
nan

>  <original SMILES>  (1244) 
nan

>  <∆G_unbound>  (1244) 
1.407194

>  <∆G_bound>  (1244) 
-10.455321

>  <regarded>  (1244) 
mArh-5cb5_J_2_J_γ,mArh-5cb5_G_0_G_α

>  <ref_pdb>  (1244) 
nan

>  <smiles>  (1244) 
OC1COC(CCCCCCC2OC(O)C(O)C2O)C1O

>  <submitter_email>  (1244) 
nan

>  <disregarded>  (1244) 


>  <LE>  (1244) 
-0.564882

>  <submitter_institution>  (1244) 
nan

>  <ref_mols>  (1244) 
mArh-5cb5_J_2_J,mArh-5cb5_G_0_G

>  <N_constrained_atoms>  (1244) 
17.0

>  <ref_url>  (1244) 
nan

>  <method>  (1244) 
nan

>  <comRMSD>  (1244) 
4.416364

>  <N_unconstrained_atoms>  (1244) 
4.0

>  <∆∆G>  (1244) 
-11.862515

>  <runtime>  (1244) 
39.071212

>  <generation_date>  (1244) 
nan

$$$$
mArh-3vfq_B_0_A_γ-mArh-4iqy_B_0_B_α
     RDKit          3D

 22 23  0  0  0  0  0  0  0  0999 V2000
   -5.4800   12.4330   -2.4080 O   0  0  0  0  0  0  0  0  0  0  0  0
   -5.1120   13.7990   -2.5890 C   0  0  1  0  0  0  0  0  0  0  0  0
   -4.2910   14.3550   -1.4210 C   0  0  0  0  0  0  0  0  0  0  0  0
   -4.1790   13.9530   -3.7970 C   0  0  2  0  0  0  0  0  0  0  0  0
   -3.9880   12.7240   -4.4880 O   0  0  0  0  0  0  0  0  0  0  0  0
   -3.2760   15.1830   -1.9960 O   0  0  0  0  0  0  0  0  0  0  0  0
   -2.8800   14.4630   -3.1700 C   0  0  2  0  0  0  0  0  0  0  0  0
   -1.9560   15.2610   -4.0800 C   0  0  0  0  0  0  0  0  0  0  0  0
   -2.6360   16.3660   -4.8530 C   0  0  0  0  0  0  0  0  0  0  0  0
   -1.6850   17.1040   -5.7890 C   0  0  0  0  0  0  0  0  0  0  0  0
   -1.4130   18.5760   -5.5320 C   0  0  0  0  0  0  0  0  0  0  0  0
   -1.1200   19.3670   -6.8060 C   0  0  0  0  0  0  0  0  0  0  0  0
   -1.8220   20.7150   -6.8150 C   0  0  0  0  0  0  0  0  0  0  0  0
   -2.0040   21.3270   -8.1930 C   0  0  0  0  0  0  0  0  0  0  0  0
   -3.4340   21.7130   -8.5840 C   0  0  1  0  0  0  0  0  0  0  0  0
   -4.2970   20.8060   -7.8490 O   0  0  0  0  0  0  0  0  0  0  0  0
   -3.8960   23.1380   -8.2660 C   0  0  1  0  0  0  0  0  0  0  0  0
   -4.7150   23.7690   -9.2380 O   0  0  0  0  0  0  0  0  0  0  0  0
   -5.1640   21.5590   -7.0340 C   0  0  1  0  0  0  0  0  0  0  0  0
   -4.6010   22.9690   -6.9310 C   0  0  2  0  0  0  0  0  0  0  0  0
   -6.4460   21.5370   -7.6160 O   0  0  0  0  0  0  0  0  0  0  0  0
   -5.5900   23.9700   -6.7130 O   0  0  0  0  0  0  0  0  0  0  0  0
  2  1  1  1
  2  3  1  0
  2  4  1  0
  4  5  1  1
  3  6  1  0
  4  7  1  0
  6  7  1  0
  7  8  1  6
  8  9  1  0
  9 10  1  0
 10 11  1  0
 11 12  1  0
 12 13  1  0
 13 14  1  0
 15 14  1  1
 15 16  1  0
 15 17  1  0
 17 18  1  6
 16 19  1  0
 17 20  1  0
 19 20  1  0
 19 21  1  6
 20 22  1  6
M  END
>  <%Rank>  (1245) 
94.961832

>  <N_hits>  (1245) 
2

>  <submitter_name>  (1245) 
nan

>  <original SMILES>  (1245) 
nan

>  <∆G_unbound>  (1245) 
0.200093

>  <∆G_bound>  (1245) 
-10.511712

>  <regarded>  (1245) 
mArh-3vfq_B_0_A_γ,mArh-4iqy_B_0_B_α

>  <ref_pdb>  (1245) 
nan

>  <smiles>  (1245) 
OC1COC(CCCCCCCC2OC(O)C(O)C2O)C1O

>  <submitter_email>  (1245) 
nan

>  <disregarded>  (1245) 


>  <LE>  (1245) 
-0.4869

>  <submitter_institution>  (1245) 
nan

>  <ref_mols>  (1245) 
mArh-3vfq_B_0_A,mArh-4iqy_B_0_B

>  <N_constrained_atoms>  (1245) 
17.0

>  <ref_url>  (1245) 
nan

>  <method>  (1245) 
nan

>  <comRMSD>  (1245) 
4.348125

>  <N_unconstrained_atoms>  (1245) 
5.0

>  <∆∆G>  (1245) 
-10.711805

>  <runtime>  (1245) 
49.747932

>  <generation_date>  (1245) 
nan

$$$$
5CB5_0_B_γ-5CB3_0_A_α
     RDKit          3D

 21 22  0  0  0  0  0  0  0  0999 V2000
   -0.7490   12.4600   -4.0870 O   0  0  0  0  0  0  0  0  0  0  0  0
   -1.0480   13.8400   -4.1100 C   0  0  1  0  0  0  0  0  0  0  0  0
   -0.7310   14.5570   -2.8090 C   0  0  0  0  0  0  0  0  0  0  0  0
   -0.1550   14.5650   -5.0900 C   0  0  2  0  0  0  0  0  0  0  0  0
    1.1630   14.0100   -5.0620 O   0  0  0  0  0  0  0  0  0  0  0  0
   -0.1660   15.8350   -3.1560 O   0  0  0  0  0  0  0  0  0  0  0  0
   -0.3220   15.9950   -4.5730 C   0  0  1  0  0  0  0  0  0  0  0  0
    0.6640   17.0660   -5.0220 C   0  0  0  0  0  0  0  0  0  0  0  0
    0.3540   17.7640   -6.3320 C   0  0  0  0  0  0  0  0  0  0  0  0
   -0.1910   19.1580   -6.3230 C   0  0  0  0  0  0  0  0  0  0  0  0
   -1.3300   19.3380   -7.3090 C   0  0  0  0  0  0  0  0  0  0  0  0
   -1.2490   20.6050   -8.1430 C   0  0  0  0  0  0  0  0  0  0  0  0
   -2.1970   21.7220   -7.6770 C   0  0  0  0  0  0  0  0  0  0  0  0
   -3.5070   21.8500   -8.4810 C   0  0  1  0  0  0  0  0  0  0  0  0
   -4.4490   20.9270   -7.9160 O   0  0  0  0  0  0  0  0  0  0  0  0
   -4.1160   23.2690   -8.4250 C   0  0  1  0  0  0  0  0  0  0  0  0
   -4.4630   23.8830   -9.6550 O   0  0  0  0  0  0  0  0  0  0  0  0
   -5.5480   21.6400   -7.3730 C   0  0  2  0  0  0  0  0  0  0  0  0
   -5.3680   23.1360   -7.5950 C   0  0  1  0  0  0  0  0  0  0  0  0
   -5.6290   21.4070   -5.9820 O   0  0  0  0  0  0  0  0  0  0  0  0
   -5.3050   23.8890   -6.3900 O   0  0  0  0  0  0  0  0  0  0  0  0
  2  1  1  1
  2  3  1  0
  2  4  1  0
  4  5  1  1
  3  6  1  0
  4  7  1  0
  6  7  1  0
  7  8  1  6
  8  9  1  0
  9 10  1  0
 10 11  1  0
 11 12  1  0
 12 13  1  0
 14 13  1  1
 14 15  1  0
 14 16  1  0
 16 17  1  6
 15 18  1  0
 16 19  1  0
 18 19  1  0
 18 20  1  1
 19 21  1  1
M  END
>  <%Rank>  (1246) 
95.038168

>  <N_hits>  (1246) 
2

>  <submitter_name>  (1246) 
nan

>  <original SMILES>  (1246) 
nan

>  <∆G_unbound>  (1246) 
1.407194

>  <∆G_bound>  (1246) 
-10.76346

>  <regarded>  (1246) 
5CB5_0_B_γ,5CB3_0_A_α

>  <ref_pdb>  (1246) 
nan

>  <smiles>  (1246) 
OC1COC(CCCCCCC2OC(O)C(O)C2O)C1O

>  <submitter_email>  (1246) 
nan

>  <disregarded>  (1246) 


>  <LE>  (1246) 
-0.579555

>  <submitter_institution>  (1246) 
nan

>  <ref_mols>  (1246) 
5CB5_0_B,5CB3_0_A

>  <N_constrained_atoms>  (1246) 
17.0

>  <ref_url>  (1246) 
nan

>  <method>  (1246) 
nan

>  <comRMSD>  (1246) 
4.444679

>  <N_unconstrained_atoms>  (1246) 
4.0

>  <∆∆G>  (1246) 
-12.170654

>  <runtime>  (1246) 
45.173512

>  <generation_date>  (1246) 
nan

$$$$
3Q6Z_0_A_γ-mArh-5cb5_L_0_L_α
     RDKit          3D

 21 22  0  0  0  0  0  0  0  0999 V2000
   -0.7210   12.2960   -4.3690 O   0  0  0  0  0  0  0  0  0  0  0  0
   -0.9180   13.6980   -4.3820 C   0  0  1  0  0  0  0  0  0  0  0  0
   -1.1130   14.2890   -2.9900 C   0  0  0  0  0  0  0  0  0  0  0  0
    0.3060   14.4730   -4.8450 C   0  0  2  0  0  0  0  0  0  0  0  0
    1.4600   13.9450   -4.1790 O   0  0  0  0  0  0  0  0  0  0  0  0
   -0.5070   15.5910   -3.0240 O   0  0  0  0  0  0  0  0  0  0  0  0
   -0.1850   15.8490   -4.4040 C   0  0  1  0  0  0  0  0  0  0  0  0
    0.7260   17.0790   -4.4790 C   0  0  0  0  0  0  0  0  0  0  0  0
    0.7590   17.9220   -5.7740 C   0  0  0  0  0  0  0  0  0  0  0  0
   -0.6030   18.4620   -6.2830 C   0  0  0  0  0  0  0  0  0  0  0  0
   -0.5140   19.4240   -7.5030 C   0  0  0  0  0  0  0  0  0  0  0  0
   -1.0300   20.8600   -7.2540 C   0  0  0  0  0  0  0  0  0  0  0  0
   -1.8730   21.5220   -8.3700 C   0  0  0  0  0  0  0  0  0  0  0  0
   -3.2540   22.0070   -7.8900 C   0  0  2  0  0  0  0  0  0  0  0  0
   -4.2860   21.0960   -8.2640 O   0  0  0  0  0  0  0  0  0  0  0  0
   -3.8340   23.3450   -8.3830 C   0  0  1  0  0  0  0  0  0  0  0  0
   -3.8460   23.5780   -9.7770 O   0  0  0  0  0  0  0  0  0  0  0  0
   -5.4500   21.7130   -7.7160 C   0  0  2  0  0  0  0  0  0  0  0  0
   -5.2780   23.2400   -7.8950 C   0  0  1  0  0  0  0  0  0  0  0  0
   -5.5420   21.4210   -6.3270 O   0  0  0  0  0  0  0  0  0  0  0  0
   -5.5090   24.0040   -6.7040 O   0  0  0  0  0  0  0  0  0  0  0  0
  2  1  1  1
  2  3  1  0
  2  4  1  0
  4  5  1  1
  3  6  1  0
  4  7  1  0
  6  7  1  0
  7  8  1  1
  8  9  1  0
  9 10  1  0
 10 11  1  0
 11 12  1  0
 12 13  1  0
 14 13  1  6
 14 15  1  0
 14 16  1  0
 16 17  1  6
 15 18  1  0
 16 19  1  0
 18 19  1  0
 18 20  1  1
 19 21  1  1
M  END
>  <%Rank>  (1247) 
95.114504

>  <N_hits>  (1247) 
2

>  <submitter_name>  (1247) 
nan

>  <original SMILES>  (1247) 
nan

>  <∆G_unbound>  (1247) 
1.407194

>  <∆G_bound>  (1247) 
-12.284912

>  <regarded>  (1247) 
3Q6Z_0_A_γ,mArh-5cb5_L_0_L_α

>  <ref_pdb>  (1247) 
nan

>  <smiles>  (1247) 
OC1COC(CCCCCCC2OC(O)C(O)C2O)C1O

>  <submitter_email>  (1247) 
nan

>  <disregarded>  (1247) 


>  <LE>  (1247) 
-0.652005

>  <submitter_institution>  (1247) 
nan

>  <ref_mols>  (1247) 
3Q6Z_0_A,mArh-5cb5_L_0_L

>  <N_constrained_atoms>  (1247) 
17.0

>  <ref_url>  (1247) 
nan

>  <method>  (1247) 
nan

>  <comRMSD>  (1247) 
4.481968

>  <N_unconstrained_atoms>  (1247) 
4.0

>  <∆∆G>  (1247) 
-13.692106

>  <runtime>  (1247) 
33.993998

>  <generation_date>  (1247) 
nan

$$$$
mArh-5cms_L_11_L_γ-5CB5_0_M_α
     RDKit          3D

 24 25  0  0  0  0  0  0  0  0999 V2000
   -0.0980   12.4320   -3.9640 O   0  0  0  0  0  0  0  0  0  0  0  0
    0.5230   13.7050   -4.0050 C   0  0  2  0  0  0  0  0  0  0  0  0
    0.0870   14.6660   -2.9270 C   0  0  0  0  0  0  0  0  0  0  0  0
    0.1540   14.5000   -5.2290 C   0  0  2  0  0  0  0  0  0  0  0  0
    0.8900   13.8860   -6.2800 O   0  0  0  0  0  0  0  0  0  0  0  0
    0.5510   15.9490   -3.3840 O   0  0  0  0  0  0  0  0  0  0  0  0
    0.6420   15.9100   -4.8300 C   0  0  2  0  0  0  0  0  0  0  0  0
   -0.1610   17.1050   -5.3680 C   0  0  0  0  0  0  0  0  0  0  0  0
    0.7270   18.1260   -6.0810 C   0  0  0  0  0  0  0  0  0  0  0  0
   -0.0010   19.3540   -6.6330 C   0  0  0  0  0  0  0  0  0  0  0  0
   -0.9100   19.1960   -7.8270 C   0  0  0  0  0  0  0  0  0  0  0  0
   -1.1020   20.5450   -8.5360 C   0  0  0  0  0  0  0  0  0  0  0  0
   -2.0010   21.5940   -7.8690 C   0  0  0  0  0  0  0  0  0  0  0  0
   -3.2180   21.9600   -8.7340 C   0  0  2  0  0  0  0  0  0  0  0  0
   -3.6960   23.3990   -8.5940 C   0  0  1  0  0  0  0  0  0  0  0  0
   -4.3400   21.1870   -8.3450 O   0  0  0  0  0  0  0  0  0  0  0  0
   -4.4110   23.8380   -9.7510 O   0  0  0  0  0  0  0  0  0  0  0  0
   -4.4940   23.3020   -7.2780 C   0  0  2  0  0  0  0  0  0  0  0  0
   -5.1670   21.9450   -7.4630 C   0  0  2  0  0  0  0  0  0  0  0  0
   -5.5620   24.2510   -7.1660 O   0  0  0  0  0  0  0  0  0  0  0  0
   -5.2480   21.2830   -6.2030 O   0  0  0  0  0  0  0  0  0  0  0  0
   -6.3400   24.3340   -8.3600 C   0  0  2  0  0  0  0  0  0  0  0  0
   -6.0160   25.5950   -9.1190 C   0  0  0  0  0  0  0  0  0  0  0  0
   -7.6910   24.4460   -8.0560 O   0  0  0  0  0  0  0  0  0  0  0  0
  2  1  1  1
  2  3  1  0
  2  4  1  0
  4  5  1  6
  3  6  1  0
  4  7  1  0
  6  7  1  0
  7  8  1  6
  8  9  1  0
  9 10  1  0
 10 11  1  0
 11 12  1  0
 12 13  1  0
 14 13  1  1
 14 15  1  0
 14 16  1  0
 15 17  1  6
 15 18  1  0
 16 19  1  0
 18 19  1  0
 18 20  1  6
 19 21  1  1
 20 22  1  0
 22 23  1  1
 22 24  1  0
M  END
>  <%Rank>  (1248) 
95.19084

>  <N_hits>  (1248) 
2

>  <submitter_name>  (1248) 
nan

>  <original SMILES>  (1248) 
nan

>  <∆G_unbound>  (1248) 
0.756545

>  <∆G_bound>  (1248) 
-11.31659

>  <regarded>  (1248) 
mArh-5cms_L_11_L_γ,5CB5_0_M_α

>  <ref_pdb>  (1248) 
nan

>  <smiles>  (1248) 
C[C@H](O)OC1C(O)OC(CCCCCCC2OCC(O)C2O)C1O

>  <submitter_email>  (1248) 
nan

>  <disregarded>  (1248) 


>  <LE>  (1248) 
-0.503047

>  <submitter_institution>  (1248) 
nan

>  <ref_mols>  (1248) 
mArh-5cms_L_11_L,5CB5_0_M

>  <N_constrained_atoms>  (1248) 
20.0

>  <ref_url>  (1248) 
nan

>  <method>  (1248) 
nan

>  <comRMSD>  (1248) 
4.493427

>  <N_unconstrained_atoms>  (1248) 
4.0

>  <∆∆G>  (1248) 
-12.073136

>  <runtime>  (1248) 
62.135162

>  <generation_date>  (1248) 
nan

$$$$
6WOJ_0_A_γ-5CMS_0_I_α
     RDKit          3D

 21 22  0  0  0  0  0  0  0  0999 V2000
   -0.4560   12.0910   -4.4740 O   0  0  0  0  0  0  0  0  0  0  0  0
   -0.5770   13.4990   -4.4130 C   0  0  1  0  0  0  0  0  0  0  0  0
   -0.3510   14.0760   -3.0200 C   0  0  0  0  0  0  0  0  0  0  0  0
    0.5050   14.2240   -5.1780 C   0  0  2  0  0  0  0  0  0  0  0  0
    1.7790   13.6790   -4.8260 O   0  0  0  0  0  0  0  0  0  0  0  0
    0.1380   15.4170   -3.2210 O   0  0  0  0  0  0  0  0  0  0  0  0
    0.1520   15.6140   -4.6500 C   0  0  1  0  0  0  0  0  0  0  0  0
    1.0520   16.7800   -4.9810 C   0  0  0  0  0  0  0  0  0  0  0  0
    0.4230   18.1580   -5.2040 C   0  0  0  0  0  0  0  0  0  0  0  0
   -0.0520   18.4370   -6.6400 C   0  0  0  0  0  0  0  0  0  0  0  0
   -1.3260   19.2850   -6.7500 C   0  0  0  0  0  0  0  0  0  0  0  0
   -1.2390   20.4550   -7.7430 C   0  0  0  0  0  0  0  0  0  0  0  0
   -1.8790   21.7220   -7.1560 C   0  0  0  0  0  0  0  0  0  0  0  0
   -3.0220   22.4090   -7.9280 C   0  0  2  0  0  0  0  0  0  0  0  0
   -4.1200   21.5640   -8.2630 O   0  0  0  0  0  0  0  0  0  0  0  0
   -2.5490   22.8160   -9.2470 C   0  0  1  0  0  0  0  0  0  0  0  0
   -1.6500   21.8100   -9.5760 O   0  0  0  0  0  0  0  0  0  0  0  0
   -4.8330   22.3360   -9.2380 C   0  0  2  0  0  0  0  0  0  0  0  0
   -3.7980   22.9410  -10.1410 C   0  0  2  0  0  0  0  0  0  0  0  0
   -5.5480   23.3870   -8.6450 O   0  0  0  0  0  0  0  0  0  0  0  0
   -3.7560   22.2510  -11.3910 O   0  0  0  0  0  0  0  0  0  0  0  0
  2  1  1  1
  2  3  1  0
  2  4  1  0
  4  5  1  1
  3  6  1  0
  4  7  1  0
  6  7  1  0
  7  8  1  1
  8  9  1  0
  9 10  1  0
 10 11  1  0
 11 12  1  0
 12 13  1  0
 14 13  1  6
 14 15  1  0
 14 16  1  0
 16 17  1  6
 15 18  1  0
 16 19  1  0
 18 19  1  0
 18 20  1  1
 19 21  1  6
M  END
>  <%Rank>  (1249) 
95.267176

>  <N_hits>  (1249) 
2

>  <submitter_name>  (1249) 
nan

>  <original SMILES>  (1249) 
nan

>  <∆G_unbound>  (1249) 
1.407194

>  <∆G_bound>  (1249) 
-6.936958

>  <regarded>  (1249) 
6WOJ_0_A_γ,5CMS_0_I_α

>  <ref_pdb>  (1249) 
nan

>  <smiles>  (1249) 
OC1COC(CCCCCCC2OC(O)C(O)C2O)C1O

>  <submitter_email>  (1249) 
nan

>  <disregarded>  (1249) 


>  <LE>  (1249) 
-0.397341

>  <submitter_institution>  (1249) 
nan

>  <ref_mols>  (1249) 
6WOJ_0_A,5CMS_0_I

>  <N_constrained_atoms>  (1249) 
17.0

>  <ref_url>  (1249) 
nan

>  <method>  (1249) 
nan

>  <comRMSD>  (1249) 
4.372393

>  <N_unconstrained_atoms>  (1249) 
4.0

>  <∆∆G>  (1249) 
-8.344152

>  <runtime>  (1249) 
40.629779

>  <generation_date>  (1249) 
nan

$$$$
mArh-x0852_0_B_α-6WOJ_0_A_α
     RDKit          3D

 26 27  0  0  0  0  0  0  0  0999 V2000
   -9.3640   16.9150    5.7010 N   0  0  0  0  0  0  0  0  0  0  0  0
   -9.2890   16.4550    4.6370 C   0  0  0  0  0  0  0  0  0  0  0  0
   -9.1620   15.9510    3.2990 C   0  0  0  0  0  0  0  0  0  0  0  0
   -8.2370   14.9520    2.9880 C   0  0  0  0  0  0  0  0  0  0  0  0
   -9.9870   16.4820    2.2940 C   0  0  0  0  0  0  0  0  0  0  0  0
   -7.4520   14.4470    3.9910 O   0  0  0  0  0  0  0  0  0  0  0  0
   -8.1290   14.4850    1.6800 C   0  0  0  0  0  0  0  0  0  0  0  0
   -9.8950   16.0280    0.9730 C   0  0  0  0  0  0  0  0  0  0  0  0
  -10.6360   16.4600   -0.1170 O   0  0  0  0  0  0  0  0  0  0  0  0
   -8.9550   15.0230    0.6830 C   0  0  0  0  0  0  0  0  0  0  0  0
  -10.1790   16.1630   -1.4440 C   0  0  0  0  0  0  0  0  0  0  0  0
   -9.9530   17.4060   -2.3070 C   0  0  0  0  0  0  0  0  0  0  0  0
   -8.5270   17.9620   -2.1920 C   0  0  0  0  0  0  0  0  0  0  0  0
   -8.2320   19.4580   -2.8940 C   0  0  0  0  0  0  0  0  0  0  0  0
   -6.6750   21.1780   -4.1060 C   0  0  0  0  0  0  0  0  0  0  0  0
   -5.9230   21.5260   -5.6340 C   0  0  0  0  0  0  0  0  0  0  0  0
   -5.3080   22.8370   -6.1900 C   0  0  0  0  0  0  0  0  0  0  0  0
   -3.9180   22.6320   -6.2560 O   0  0  0  0  0  0  0  0  0  0  0  0
   -3.6430   21.6120   -7.1810 C   0  0  2  0  0  0  0  0  0  0  0  0
   -3.3270   20.3950   -6.4820 O   0  0  0  0  0  0  0  0  0  0  0  0
   -2.5050   21.9030   -8.1540 C   0  0  2  0  0  0  0  0  0  0  0  0
   -3.0300   21.6320   -9.4570 O   0  0  0  0  0  0  0  0  0  0  0  0
   -1.9220   20.1630   -6.5890 C   0  0  2  0  0  0  0  0  0  0  0  0
   -1.3900   20.9170   -7.8150 C   0  0  1  0  0  0  0  0  0  0  0  0
   -1.6680   18.6650   -6.5660 C   0  0  0  0  0  0  0  0  0  0  0  0
   -1.1220   20.0830   -8.9410 O   0  0  0  0  0  0  0  0  0  0  0  0
  1  2  3  0
  2  3  1  0
  3  4  2  0
  3  5  1  0
  4  6  1  0
  4  7  1  0
  5  8  2  0
  8  9  1  0
  7 10  2  0
  8 10  1  0
  9 11  1  0
 11 12  1  0
 12 13  1  0
 13 14  1  0
 14 15  1  0
 15 16  1  0
 16 17  1  0
 17 18  1  0
 19 18  1  1
 19 20  1  0
 19 21  1  0
 21 22  1  6
 20 23  1  0
 21 24  1  0
 23 24  1  0
 23 25  1  6
 24 26  1  6
M  END
>  <%Rank>  (1250) 
95.343511

>  <N_hits>  (1250) 
2

>  <submitter_name>  (1250) 
nan

>  <original SMILES>  (1250) 
nan

>  <∆G_unbound>  (1250) 
0.065812

>  <∆G_bound>  (1250) 
83.32323

>  <regarded>  (1250) 
mArh-x0852_0_B_α,6WOJ_0_A_α

>  <ref_pdb>  (1250) 
nan

>  <smiles>  (1250) 
CC1OC(OCCCCCCCOc2ccc(O)c(C#N)c2)C(O)C1O

>  <submitter_email>  (1250) 
nan

>  <disregarded>  (1250) 


>  <LE>  (1250) 
3.202208

>  <submitter_institution>  (1250) 
nan

>  <ref_mols>  (1250) 
mArh-x0852_0_B,6WOJ_0_A

>  <N_constrained_atoms>  (1250) 
19.0

>  <ref_url>  (1250) 
nan

>  <method>  (1250) 
nan

>  <comRMSD>  (1250) 
2.549855

>  <N_unconstrained_atoms>  (1250) 
7.0

>  <∆∆G>  (1250) 
83.257418

>  <runtime>  (1250) 
126.453844

>  <generation_date>  (1250) 
nan

$$$$
5CMS_0_A_γ-5CB5_0_R_α
     RDKit          3D

 21 22  0  0  0  0  0  0  0  0999 V2000
   -0.5260   11.9810   -4.0840 O   0  0  0  0  0  0  0  0  0  0  0  0
   -0.8790   13.3400   -4.2660 C   0  0  1  0  0  0  0  0  0  0  0  0
   -0.7620   14.1630   -2.9900 C   0  0  0  0  0  0  0  0  0  0  0  0
    0.0830   14.0470   -5.1960 C   0  0  2  0  0  0  0  0  0  0  0  0
    1.4100   13.5720   -4.9610 O   0  0  0  0  0  0  0  0  0  0  0  0
   -0.3390   15.4810   -3.3800 O   0  0  0  0  0  0  0  0  0  0  0  0
   -0.2220   15.5010   -4.8180 C   0  0  1  0  0  0  0  0  0  0  0  0
    0.7830   16.5840   -5.1900 C   0  0  0  0  0  0  0  0  0  0  0  0
    0.2750   18.0330   -5.2150 C   0  0  0  0  0  0  0  0  0  0  0  0
    0.2360   18.7280   -6.5940 C   0  0  0  0  0  0  0  0  0  0  0  0
   -1.1430   19.3200   -6.9380 C   0  0  0  0  0  0  0  0  0  0  0  0
   -1.1430   20.4820   -7.9460 C   0  0  0  0  0  0  0  0  0  0  0  0
   -2.0920   21.6420   -7.5610 C   0  0  0  0  0  0  0  0  0  0  0  0
   -3.3880   21.7890   -8.4000 C   0  0  1  0  0  0  0  0  0  0  0  0
   -4.3470   20.8420   -7.9150 O   0  0  0  0  0  0  0  0  0  0  0  0
   -4.0170   23.2010   -8.2950 C   0  0  1  0  0  0  0  0  0  0  0  0
   -4.3260   23.8840   -9.4950 O   0  0  0  0  0  0  0  0  0  0  0  0
   -5.4240   21.5240   -7.2900 C   0  0  2  0  0  0  0  0  0  0  0  0
   -5.3030   23.0240   -7.5350 C   0  0  1  0  0  0  0  0  0  0  0  0
   -5.4080   21.2730   -5.9030 O   0  0  0  0  0  0  0  0  0  0  0  0
   -5.3490   23.8290   -6.3590 O   0  0  0  0  0  0  0  0  0  0  0  0
  2  1  1  1
  2  3  1  0
  2  4  1  0
  4  5  1  1
  3  6  1  0
  4  7  1  0
  6  7  1  0
  7  8  1  1
  8  9  1  0
  9 10  1  0
 10 11  1  0
 11 12  1  0
 12 13  1  0
 14 13  1  1
 14 15  1  0
 14 16  1  0
 16 17  1  6
 15 18  1  0
 16 19  1  0
 18 19  1  0
 18 20  1  1
 19 21  1  1
M  END
>  <%Rank>  (1251) 
95.419847

>  <N_hits>  (1251) 
2

>  <submitter_name>  (1251) 
nan

>  <original SMILES>  (1251) 
nan

>  <∆G_unbound>  (1251) 
1.407194

>  <∆G_bound>  (1251) 
-12.817731

>  <regarded>  (1251) 
5CMS_0_A_γ,5CB5_0_R_α

>  <ref_pdb>  (1251) 
nan

>  <smiles>  (1251) 
OC1COC(CCCCCCC2OC(O)C(O)C2O)C1O

>  <submitter_email>  (1251) 
nan

>  <disregarded>  (1251) 


>  <LE>  (1251) 
-0.677377

>  <submitter_institution>  (1251) 
nan

>  <ref_mols>  (1251) 
5CMS_0_A,5CB5_0_R

>  <N_constrained_atoms>  (1251) 
17.0

>  <ref_url>  (1251) 
nan

>  <method>  (1251) 
nan

>  <comRMSD>  (1251) 
4.515491

>  <N_unconstrained_atoms>  (1251) 
4.0

>  <∆∆G>  (1251) 
-14.224924

>  <runtime>  (1251) 
43.184492

>  <generation_date>  (1251) 
nan

$$$$
mArh-2bfq_0_A_γ-5CB5_0_O_α
     RDKit          3D

 21 22  0  0  0  0  0  0  0  0999 V2000
   -0.9480   12.6440   -3.9910 O   0  0  0  0  0  0  0  0  0  0  0  0
   -1.0740   14.0470   -4.0400 C   0  0  1  0  0  0  0  0  0  0  0  0
   -0.7350   14.7400   -2.7300 C   0  0  0  0  0  0  0  0  0  0  0  0
   -0.0340   14.6390   -4.9570 C   0  0  2  0  0  0  0  0  0  0  0  0
    1.2220   14.0030   -4.7260 O   0  0  0  0  0  0  0  0  0  0  0  0
   -0.0740   15.9710   -3.0840 O   0  0  0  0  0  0  0  0  0  0  0  0
   -0.1230   16.0890   -4.5190 C   0  0  1  0  0  0  0  0  0  0  0  0
    1.0130   16.9740   -4.9670 C   0  0  0  0  0  0  0  0  0  0  0  0
    0.7620   18.1550   -5.9060 C   0  0  0  0  0  0  0  0  0  0  0  0
   -0.6720   18.6770   -5.9880 C   0  0  0  0  0  0  0  0  0  0  0  0
   -0.7160   20.0110   -6.7490 C   0  0  0  0  0  0  0  0  0  0  0  0
   -1.6160   20.0270   -7.9390 C   0  0  0  0  0  0  0  0  0  0  0  0
   -1.9410   21.4170   -8.5050 C   0  0  0  0  0  0  0  0  0  0  0  0
   -3.1700   22.0500   -7.8630 C   0  0  2  0  0  0  0  0  0  0  0  0
   -4.3240   21.3440   -8.2800 O   0  0  0  0  0  0  0  0  0  0  0  0
   -3.6170   23.4480   -8.2400 C   0  0  1  0  0  0  0  0  0  0  0  0
   -3.8970   23.6720   -9.6150 O   0  0  0  0  0  0  0  0  0  0  0  0
   -5.3790   22.0240   -7.5940 C   0  0  2  0  0  0  0  0  0  0  0  0
   -4.9120   23.4700   -7.4460 C   0  0  2  0  0  0  0  0  0  0  0  0
   -5.5840   21.4780   -6.2970 O   0  0  0  0  0  0  0  0  0  0  0  0
   -5.8210   24.3750   -8.0390 O   0  0  0  0  0  0  0  0  0  0  0  0
  2  1  1  1
  2  3  1  0
  2  4  1  0
  4  5  1  1
  3  6  1  0
  4  7  1  0
  6  7  1  0
  7  8  1  6
  8  9  1  0
  9 10  1  0
 10 11  1  0
 11 12  1  0
 12 13  1  0
 14 13  1  6
 14 15  1  0
 14 16  1  0
 16 17  1  6
 15 18  1  0
 16 19  1  0
 18 19  1  0
 18 20  1  1
 19 21  1  6
M  END
>  <%Rank>  (1252) 
95.496183

>  <N_hits>  (1252) 
2

>  <submitter_name>  (1252) 
nan

>  <original SMILES>  (1252) 
nan

>  <∆G_unbound>  (1252) 
1.407194

>  <∆G_bound>  (1252) 
-9.639537

>  <regarded>  (1252) 
mArh-2bfq_0_A_γ,5CB5_0_O_α

>  <ref_pdb>  (1252) 
nan

>  <smiles>  (1252) 
OC1COC(CCCCCCC2OC(O)C(O)C2O)C1O

>  <submitter_email>  (1252) 
nan

>  <disregarded>  (1252) 


>  <LE>  (1252) 
-0.526035

>  <submitter_institution>  (1252) 
nan

>  <ref_mols>  (1252) 
mArh-2bfq_0_A,5CB5_0_O

>  <N_constrained_atoms>  (1252) 
17.0

>  <ref_url>  (1252) 
nan

>  <method>  (1252) 
nan

>  <comRMSD>  (1252) 
4.441435

>  <N_unconstrained_atoms>  (1252) 
4.0

>  <∆∆G>  (1252) 
-11.046731

>  <runtime>  (1252) 
38.627813

>  <generation_date>  (1252) 
nan

$$$$
5CMS_0_Q_γ-5CB5_0_I_α
     RDKit          3D

 21 22  0  0  0  0  0  0  0  0999 V2000
   -1.0450   12.1610   -4.4180 O   0  0  0  0  0  0  0  0  0  0  0  0
   -1.1270   13.5720   -4.4450 C   0  0  1  0  0  0  0  0  0  0  0  0
   -0.9090   14.2470   -3.0910 C   0  0  0  0  0  0  0  0  0  0  0  0
    0.0140   14.1570   -5.2370 C   0  0  2  0  0  0  0  0  0  0  0  0
    1.2280   13.5090   -4.8540 O   0  0  0  0  0  0  0  0  0  0  0  0
   -0.2680   15.5060   -3.3710 O   0  0  0  0  0  0  0  0  0  0  0  0
   -0.1740   15.6090   -4.8100 C   0  0  1  0  0  0  0  0  0  0  0  0
    0.8940   16.6330   -5.1690 C   0  0  0  0  0  0  0  0  0  0  0  0
    0.4540   18.0910   -5.3840 C   0  0  0  0  0  0  0  0  0  0  0  0
    0.0330   18.4660   -6.8200 C   0  0  0  0  0  0  0  0  0  0  0  0
   -0.4590   19.9140   -6.9630 C   0  0  0  0  0  0  0  0  0  0  0  0
   -1.5710   20.1520   -7.9610 C   0  0  0  0  0  0  0  0  0  0  0  0
   -1.8900   21.6250   -8.2990 C   0  0  0  0  0  0  0  0  0  0  0  0
   -3.2410   22.1330   -7.7780 C   0  0  2  0  0  0  0  0  0  0  0  0
   -4.2740   21.2750   -8.2060 O   0  0  0  0  0  0  0  0  0  0  0  0
   -3.8410   23.4390   -8.3060 C   0  0  1  0  0  0  0  0  0  0  0  0
   -3.9720   23.5360   -9.7110 O   0  0  0  0  0  0  0  0  0  0  0  0
   -5.4420   21.8660   -7.6150 C   0  0  2  0  0  0  0  0  0  0  0  0
   -5.2440   23.3700   -7.7100 C   0  0  1  0  0  0  0  0  0  0  0  0
   -5.5460   21.4750   -6.2470 O   0  0  0  0  0  0  0  0  0  0  0  0
   -5.4100   24.0590   -6.4710 O   0  0  0  0  0  0  0  0  0  0  0  0
  2  1  1  1
  2  3  1  0
  2  4  1  0
  4  5  1  1
  3  6  1  0
  4  7  1  0
  6  7  1  0
  7  8  1  1
  8  9  1  0
  9 10  1  0
 10 11  1  0
 11 12  1  0
 12 13  1  0
 14 13  1  6
 14 15  1  0
 14 16  1  0
 16 17  1  6
 15 18  1  0
 16 19  1  0
 18 19  1  0
 18 20  1  1
 19 21  1  1
M  END
>  <%Rank>  (1253) 
95.572519

>  <N_hits>  (1253) 
2

>  <submitter_name>  (1253) 
nan

>  <original SMILES>  (1253) 
nan

>  <∆G_unbound>  (1253) 
1.407194

>  <∆G_bound>  (1253) 
-11.436234

>  <regarded>  (1253) 
5CMS_0_Q_γ,5CB5_0_I_α

>  <ref_pdb>  (1253) 
nan

>  <smiles>  (1253) 
OC1COC(CCCCCCC2OC(O)C(O)C2O)C1O

>  <submitter_email>  (1253) 
nan

>  <disregarded>  (1253) 


>  <LE>  (1253) 
-0.611592

>  <submitter_institution>  (1253) 
nan

>  <ref_mols>  (1253) 
5CMS_0_Q,5CB5_0_I

>  <N_constrained_atoms>  (1253) 
17.0

>  <ref_url>  (1253) 
nan

>  <method>  (1253) 
nan

>  <comRMSD>  (1253) 
4.491507

>  <N_unconstrained_atoms>  (1253) 
4.0

>  <∆∆G>  (1253) 
-12.843428

>  <runtime>  (1253) 
53.710324

>  <generation_date>  (1253) 
nan

$$$$
5DUS_0_A_γ-5CB5_0_J_α
     RDKit          3D

 21 22  0  0  0  0  0  0  0  0999 V2000
   -1.2340   12.4960   -4.3650 O   0  0  0  0  0  0  0  0  0  0  0  0
   -1.1810   13.8920   -4.2270 C   0  0  1  0  0  0  0  0  0  0  0  0
   -0.7180   14.4010   -2.8690 C   0  0  0  0  0  0  0  0  0  0  0  0
   -0.0910   14.4370   -5.1040 C   0  0  2  0  0  0  0  0  0  0  0  0
    1.1020   13.6800   -4.9150 O   0  0  0  0  0  0  0  0  0  0  0  0
   -0.0090   15.6330   -3.1410 O   0  0  0  0  0  0  0  0  0  0  0  0
   -0.1150   15.8570   -4.5700 C   0  0  1  0  0  0  0  0  0  0  0  0
    0.9710   16.8070   -5.0360 C   0  0  0  0  0  0  0  0  0  0  0  0
    0.5980   18.2680   -5.3490 C   0  0  0  0  0  0  0  0  0  0  0  0
   -0.4830   18.5070   -6.4260 C   0  0  0  0  0  0  0  0  0  0  0  0
   -0.1910   19.6190   -7.4670 C   0  0  0  0  0  0  0  0  0  0  0  0
   -1.4680   20.2250   -8.0690 C   0  0  0  0  0  0  0  0  0  0  0  0
   -1.7580   21.7460   -7.9810 C   0  0  0  0  0  0  0  0  0  0  0  0
   -3.1960   22.0500   -8.4950 C   0  0  1  0  0  0  0  0  0  0  0  0
   -4.0360   21.2350   -7.6940 O   0  0  0  0  0  0  0  0  0  0  0  0
   -3.7800   23.4750   -8.3550 C   0  0  1  0  0  0  0  0  0  0  0  0
   -4.0500   24.1120   -9.5800 O   0  0  0  0  0  0  0  0  0  0  0  0
   -5.2870   21.8740   -7.4340 C   0  0  2  0  0  0  0  0  0  0  0  0
   -5.1410   23.3520   -7.6720 C   0  0  1  0  0  0  0  0  0  0  0  0
   -5.6640   21.6270   -6.0870 O   0  0  0  0  0  0  0  0  0  0  0  0
   -5.3220   24.1450   -6.4970 O   0  0  0  0  0  0  0  0  0  0  0  0
  2  1  1  1
  2  3  1  0
  2  4  1  0
  4  5  1  1
  3  6  1  0
  4  7  1  0
  6  7  1  0
  7  8  1  6
  8  9  1  0
  9 10  1  0
 10 11  1  0
 11 12  1  0
 12 13  1  0
 14 13  1  1
 14 15  1  0
 14 16  1  0
 16 17  1  6
 15 18  1  0
 16 19  1  0
 18 19  1  0
 18 20  1  1
 19 21  1  1
M  END
>  <%Rank>  (1254) 
95.648855

>  <N_hits>  (1254) 
2

>  <submitter_name>  (1254) 
nan

>  <original SMILES>  (1254) 
nan

>  <∆G_unbound>  (1254) 
1.407194

>  <∆G_bound>  (1254) 
-12.442391

>  <regarded>  (1254) 
5DUS_0_A_γ,5CB5_0_J_α

>  <ref_pdb>  (1254) 
nan

>  <smiles>  (1254) 
OC1COC(CCCCCCC2OC(O)C(O)C2O)C1O

>  <submitter_email>  (1254) 
nan

>  <disregarded>  (1254) 


>  <LE>  (1254) 
-0.659504

>  <submitter_institution>  (1254) 
nan

>  <ref_mols>  (1254) 
5DUS_0_A,5CB5_0_J

>  <N_constrained_atoms>  (1254) 
17.0

>  <ref_url>  (1254) 
nan

>  <method>  (1254) 
nan

>  <comRMSD>  (1254) 
4.527049

>  <N_unconstrained_atoms>  (1254) 
4.0

>  <∆∆G>  (1254) 
-13.849585

>  <runtime>  (1254) 
36.545126

>  <generation_date>  (1254) 
nan

$$$$
mArh-5cb5_G_0_G_γ-mArh-5cb5_P_0_P_α
     RDKit          3D

 21 22  0  0  0  0  0  0  0  0999 V2000
   -0.6750   12.4250   -3.9320 O   0  0  0  0  0  0  0  0  0  0  0  0
   -0.9620   13.7970   -4.1120 C   0  0  1  0  0  0  0  0  0  0  0  0
   -0.6390   14.6500   -2.8920 C   0  0  0  0  0  0  0  0  0  0  0  0
   -0.0660   14.4080   -5.1670 C   0  0  2  0  0  0  0  0  0  0  0  0
    1.2530   13.8820   -5.0370 O   0  0  0  0  0  0  0  0  0  0  0  0
   -0.0920   15.8870   -3.3820 O   0  0  0  0  0  0  0  0  0  0  0  0
   -0.2850   15.8740   -4.8030 C   0  0  1  0  0  0  0  0  0  0  0  0
    0.5610   16.9730   -5.4360 C   0  0  0  0  0  0  0  0  0  0  0  0
   -0.2650   18.0920   -6.0790 C   0  0  0  0  0  0  0  0  0  0  0  0
    0.5090   19.0460   -6.9920 C   0  0  0  0  0  0  0  0  0  0  0  0
   -0.2850   20.3240   -7.2990 C   0  0  0  0  0  0  0  0  0  0  0  0
   -1.4580   20.1200   -8.2080 C   0  0  0  0  0  0  0  0  0  0  0  0
   -2.0440   21.4120   -8.7940 C   0  0  0  0  0  0  0  0  0  0  0  0
   -3.0130   22.0770   -7.8570 C   0  0  2  0  0  0  0  0  0  0  0  0
   -4.2440   21.4080   -7.8470 O   0  0  0  0  0  0  0  0  0  0  0  0
   -3.4840   23.5220   -7.9870 C   0  0  1  0  0  0  0  0  0  0  0  0
   -4.1780   23.9460   -9.1520 O   0  0  0  0  0  0  0  0  0  0  0  0
   -4.6940   21.9780   -6.6370 C   0  0  1  0  0  0  0  0  0  0  0  0
   -4.4440   23.5000   -6.8010 C   0  0  2  0  0  0  0  0  0  0  0  0
   -6.0360   21.6400   -6.4150 O   0  0  0  0  0  0  0  0  0  0  0  0
   -5.6190   24.2480   -7.0840 O   0  0  0  0  0  0  0  0  0  0  0  0
  2  1  1  1
  2  3  1  0
  2  4  1  0
  4  5  1  1
  3  6  1  0
  4  7  1  0
  6  7  1  0
  7  8  1  6
  8  9  1  0
  9 10  1  0
 10 11  1  0
 11 12  1  0
 12 13  1  0
 14 13  1  6
 14 15  1  0
 14 16  1  0
 16 17  1  6
 15 18  1  0
 16 19  1  0
 18 19  1  0
 18 20  1  6
 19 21  1  6
M  END
>  <%Rank>  (1255) 
95.725191

>  <N_hits>  (1255) 
2

>  <submitter_name>  (1255) 
nan

>  <original SMILES>  (1255) 
nan

>  <∆G_unbound>  (1255) 
1.407194

>  <∆G_bound>  (1255) 
-12.059752

>  <regarded>  (1255) 
mArh-5cb5_G_0_G_γ,mArh-5cb5_P_0_P_α

>  <ref_pdb>  (1255) 
nan

>  <smiles>  (1255) 
OC1COC(CCCCCCC2OC(O)C(O)C2O)C1O

>  <submitter_email>  (1255) 
nan

>  <disregarded>  (1255) 


>  <LE>  (1255) 
-0.641283

>  <submitter_institution>  (1255) 
nan

>  <ref_mols>  (1255) 
mArh-5cb5_G_0_G,mArh-5cb5_P_0_P

>  <N_constrained_atoms>  (1255) 
17.0

>  <ref_url>  (1255) 
nan

>  <method>  (1255) 
nan

>  <comRMSD>  (1255) 
4.525106

>  <N_unconstrained_atoms>  (1255) 
4.0

>  <∆∆G>  (1255) 
-13.466946

>  <runtime>  (1255) 
47.070707

>  <generation_date>  (1255) 
nan

$$$$
mArh-5cms_G_3_G_β-5CB5_0_B_α
     RDKit          3D

 21 22  0  0  0  0  0  0  0  0999 V2000
   -1.0570   12.4980   -4.3010 O   0  0  0  0  0  0  0  0  0  0  0  0
   -1.1330   13.8960   -4.1120 C   0  0  1  0  0  0  0  0  0  0  0  0
   -0.7350   14.3610   -2.7160 C   0  0  0  0  0  0  0  0  0  0  0  0
   -0.1120   14.6270   -4.9530 C   0  0  2  0  0  0  0  0  0  0  0  0
    1.1560   13.9800   -4.8390 O   0  0  0  0  0  0  0  0  0  0  0  0
   -0.0880   15.6390   -2.8920 O   0  0  0  0  0  0  0  0  0  0  0  0
   -0.3010   15.9800   -4.2720 C   0  0  1  0  0  0  0  0  0  0  0  0
    0.5440   17.1910   -4.6480 C   0  0  0  0  0  0  0  0  0  0  0  0
    0.4350   17.6440   -6.1020 C   0  0  0  0  0  0  0  0  0  0  0  0
   -0.0250   19.0700   -6.3960 C   0  0  0  0  0  0  0  0  0  0  0  0
   -0.9770   19.1900   -7.5910 C   0  0  0  0  0  0  0  0  0  0  0  0
   -1.0390   20.5610   -8.2890 C   0  0  0  0  0  0  0  0  0  0  0  0
   -1.9900   21.6170   -7.6830 C   0  0  0  0  0  0  0  0  0  0  0  0
   -3.2090   21.9820   -8.5670 C   0  0  1  0  0  0  0  0  0  0  0  0
   -4.3110   21.1720   -8.1650 O   0  0  0  0  0  0  0  0  0  0  0  0
   -3.7380   23.4180   -8.4300 C   0  0  1  0  0  0  0  0  0  0  0  0
   -4.4990   23.9120   -9.5290 O   0  0  0  0  0  0  0  0  0  0  0  0
   -5.2030   21.9430   -7.3580 C   0  0  2  0  0  0  0  0  0  0  0  0
   -4.5680   23.3020   -7.1600 C   0  0  2  0  0  0  0  0  0  0  0  0
   -5.3780   21.3670   -6.0700 O   0  0  0  0  0  0  0  0  0  0  0  0
   -5.5730   24.2970   -6.9970 O   0  0  0  0  0  0  0  0  0  0  0  0
  2  1  1  1
  2  3  1  0
  2  4  1  0
  4  5  1  1
  3  6  1  0
  4  7  1  0
  6  7  1  0
  7  8  1  6
  8  9  1  0
  9 10  1  0
 10 11  1  0
 11 12  1  0
 12 13  1  0
 14 13  1  1
 14 15  1  0
 14 16  1  0
 16 17  1  6
 15 18  1  0
 16 19  1  0
 18 19  1  0
 18 20  1  1
 19 21  1  6
M  END
>  <%Rank>  (1256) 
95.801527

>  <N_hits>  (1256) 
2

>  <submitter_name>  (1256) 
nan

>  <original SMILES>  (1256) 
nan

>  <∆G_unbound>  (1256) 
1.407194

>  <∆G_bound>  (1256) 
-11.760928

>  <regarded>  (1256) 
mArh-5cms_G_3_G_β,5CB5_0_B_α

>  <ref_pdb>  (1256) 
nan

>  <smiles>  (1256) 
OC1COC(CCCCCCC2OC(O)C(O)C2O)C1O

>  <submitter_email>  (1256) 
nan

>  <disregarded>  (1256) 


>  <LE>  (1256) 
-0.627053

>  <submitter_institution>  (1256) 
nan

>  <ref_mols>  (1256) 
mArh-5cms_G_3_G,5CB5_0_B

>  <N_constrained_atoms>  (1256) 
17.0

>  <ref_url>  (1256) 
nan

>  <method>  (1256) 
nan

>  <comRMSD>  (1256) 
4.522602

>  <N_unconstrained_atoms>  (1256) 
4.0

>  <∆∆G>  (1256) 
-13.168122

>  <runtime>  (1256) 
41.187457

>  <generation_date>  (1256) 
nan

$$$$
mArh-2fav_B_0_B_γ-mArh-4iqy_B_0_B_α
     RDKit          3D

 21 22  0  0  0  0  0  0  0  0999 V2000
    0.1150   12.4180   -4.6310 O   0  0  0  0  0  0  0  0  0  0  0  0
   -0.2010   13.7840   -4.4340 C   0  0  1  0  0  0  0  0  0  0  0  0
   -0.2080   14.2060   -2.9690 C   0  0  0  0  0  0  0  0  0  0  0  0
    0.8440   14.7440   -4.9730 C   0  0  2  0  0  0  0  0  0  0  0  0
    2.1280   14.3400   -4.5000 O   0  0  0  0  0  0  0  0  0  0  0  0
    0.1570   15.6030   -2.9580 O   0  0  0  0  0  0  0  0  0  0  0  0
    0.2160   15.9880   -4.3460 C   0  0  1  0  0  0  0  0  0  0  0  0
    0.8200   17.3970   -4.4550 C   0  0  0  0  0  0  0  0  0  0  0  0
    0.9410   18.0470   -5.8370 C   0  0  0  0  0  0  0  0  0  0  0  0
   -0.3590   18.6710   -6.3860 C   0  0  0  0  0  0  0  0  0  0  0  0
   -0.1490   19.6740   -7.5410 C   0  0  0  0  0  0  0  0  0  0  0  0
   -1.4460   20.2670   -8.1190 C   0  0  0  0  0  0  0  0  0  0  0  0
   -1.6910   21.7860   -7.9760 C   0  0  0  0  0  0  0  0  0  0  0  0
   -3.0890   22.2200   -7.4580 C   0  0  2  0  0  0  0  0  0  0  0  0
   -4.1030   21.2710   -7.7050 O   0  0  0  0  0  0  0  0  0  0  0  0
   -3.7580   23.4630   -8.0650 C   0  0  1  0  0  0  0  0  0  0  0  0
   -3.9000   23.4740   -9.4750 O   0  0  0  0  0  0  0  0  0  0  0  0
   -5.2480   21.9070   -7.1170 C   0  0  1  0  0  0  0  0  0  0  0  0
   -5.1430   23.3860   -7.4390 C   0  0  1  0  0  0  0  0  0  0  0  0
   -6.4690   21.4590   -7.6610 O   0  0  0  0  0  0  0  0  0  0  0  0
   -5.3580   24.2160   -6.3040 O   0  0  0  0  0  0  0  0  0  0  0  0
  2  1  1  1
  2  3  1  0
  2  4  1  0
  4  5  1  1
  3  6  1  0
  4  7  1  0
  6  7  1  0
  7  8  1  1
  8  9  1  0
  9 10  1  0
 10 11  1  0
 11 12  1  0
 12 13  1  0
 14 13  1  6
 14 15  1  0
 14 16  1  0
 16 17  1  6
 15 18  1  0
 16 19  1  0
 18 19  1  0
 18 20  1  6
 19 21  1  1
M  END
>  <%Rank>  (1257) 
95.877863

>  <N_hits>  (1257) 
2

>  <submitter_name>  (1257) 
nan

>  <original SMILES>  (1257) 
nan

>  <∆G_unbound>  (1257) 
1.407194

>  <∆G_bound>  (1257) 
-11.9849

>  <regarded>  (1257) 
mArh-2fav_B_0_B_γ,mArh-4iqy_B_0_B_α

>  <ref_pdb>  (1257) 
nan

>  <smiles>  (1257) 
OC1COC(CCCCCCC2OC(O)C(O)C2O)C1O

>  <submitter_email>  (1257) 
nan

>  <disregarded>  (1257) 


>  <LE>  (1257) 
-0.637719

>  <submitter_institution>  (1257) 
nan

>  <ref_mols>  (1257) 
mArh-2fav_B_0_B,mArh-4iqy_B_0_B

>  <N_constrained_atoms>  (1257) 
17.0

>  <ref_url>  (1257) 
nan

>  <method>  (1257) 
nan

>  <comRMSD>  (1257) 
4.531016

>  <N_unconstrained_atoms>  (1257) 
4.0

>  <∆∆G>  (1257) 
-13.392094

>  <runtime>  (1257) 
35.1319

>  <generation_date>  (1257) 
nan

$$$$
mArh-5cb5_G_0_G_γ-5CB5_0_K_α
     RDKit          3D

 21 22  0  0  0  0  0  0  0  0999 V2000
   -0.7030   12.3820   -3.9620 O   0  0  0  0  0  0  0  0  0  0  0  0
   -1.0080   13.7380   -4.1900 C   0  0  1  0  0  0  0  0  0  0  0  0
   -0.7910   14.6120   -2.9650 C   0  0  0  0  0  0  0  0  0  0  0  0
   -0.0550   14.3460   -5.1950 C   0  0  2  0  0  0  0  0  0  0  0  0
    1.2510   13.8110   -4.9970 O   0  0  0  0  0  0  0  0  0  0  0  0
   -0.2870   15.8690   -3.4370 O   0  0  0  0  0  0  0  0  0  0  0  0
   -0.2550   15.8260   -4.8760 C   0  0  1  0  0  0  0  0  0  0  0  0
    0.8060   16.8200   -5.3170 C   0  0  0  0  0  0  0  0  0  0  0  0
    0.3940   18.2870   -5.4160 C   0  0  0  0  0  0  0  0  0  0  0  0
    0.3340   18.9090   -6.8300 C   0  0  0  0  0  0  0  0  0  0  0  0
   -1.0340   19.5300   -7.1690 C   0  0  0  0  0  0  0  0  0  0  0  0
   -0.9890   20.6070   -8.2640 C   0  0  0  0  0  0  0  0  0  0  0  0
   -1.7440   21.9050   -7.9070 C   0  0  0  0  0  0  0  0  0  0  0  0
   -3.1210   22.0810   -8.5710 C   0  0  1  0  0  0  0  0  0  0  0  0
   -4.0220   21.1890   -7.9270 O   0  0  0  0  0  0  0  0  0  0  0  0
   -3.7310   23.4790   -8.4030 C   0  0  1  0  0  0  0  0  0  0  0  0
   -4.5050   23.9460   -9.5000 O   0  0  0  0  0  0  0  0  0  0  0  0
   -5.0410   21.9210   -7.2480 C   0  0  2  0  0  0  0  0  0  0  0  0
   -4.5350   23.3370   -7.1180 C   0  0  2  0  0  0  0  0  0  0  0  0
   -5.2590   21.3950   -5.9460 O   0  0  0  0  0  0  0  0  0  0  0  0
   -5.6230   24.2480   -6.9990 O   0  0  0  0  0  0  0  0  0  0  0  0
  2  1  1  1
  2  3  1  0
  2  4  1  0
  4  5  1  1
  3  6  1  0
  4  7  1  0
  6  7  1  0
  7  8  1  1
  8  9  1  0
  9 10  1  0
 10 11  1  0
 11 12  1  0
 12 13  1  0
 14 13  1  1
 14 15  1  0
 14 16  1  0
 16 17  1  6
 15 18  1  0
 16 19  1  0
 18 19  1  0
 18 20  1  1
 19 21  1  6
M  END
>  <%Rank>  (1258) 
95.954198

>  <N_hits>  (1258) 
2

>  <submitter_name>  (1258) 
nan

>  <original SMILES>  (1258) 
nan

>  <∆G_unbound>  (1258) 
1.407194

>  <∆G_bound>  (1258) 
-12.603771

>  <regarded>  (1258) 
mArh-5cb5_G_0_G_γ,5CB5_0_K_α

>  <ref_pdb>  (1258) 
nan

>  <smiles>  (1258) 
OC1COC(CCCCCCC2OC(O)C(O)C2O)C1O

>  <submitter_email>  (1258) 
nan

>  <disregarded>  (1258) 


>  <LE>  (1258) 
-0.667189

>  <submitter_institution>  (1258) 
nan

>  <ref_mols>  (1258) 
mArh-5cb5_G_0_G,5CB5_0_K

>  <N_constrained_atoms>  (1258) 
17.0

>  <ref_url>  (1258) 
nan

>  <method>  (1258) 
nan

>  <comRMSD>  (1258) 
4.54578

>  <N_unconstrained_atoms>  (1258) 
4.0

>  <∆∆G>  (1258) 
-14.010965

>  <runtime>  (1258) 
34.310815

>  <generation_date>  (1258) 
nan

$$$$
mArh-5cms_I_8_I_γ-5CB5_0_J_α
     RDKit          3D

 21 22  0  0  0  0  0  0  0  0999 V2000
   -1.1520   12.4320   -4.4030 O   0  0  0  0  0  0  0  0  0  0  0  0
   -1.1290   13.8380   -4.3440 C   0  0  1  0  0  0  0  0  0  0  0  0
   -0.7330   14.4190   -2.9930 C   0  0  0  0  0  0  0  0  0  0  0  0
   -0.0340   14.3990   -5.2050 C   0  0  2  0  0  0  0  0  0  0  0  0
    1.1940   13.7140   -4.9620 O   0  0  0  0  0  0  0  0  0  0  0  0
   -0.0950   15.6800   -3.2870 O   0  0  0  0  0  0  0  0  0  0  0  0
   -0.1400   15.8370   -4.7240 C   0  0  1  0  0  0  0  0  0  0  0  0
    0.9300   16.8230   -5.1430 C   0  0  0  0  0  0  0  0  0  0  0  0
    0.5140   18.2720   -5.4060 C   0  0  0  0  0  0  0  0  0  0  0  0
    0.1120   18.6140   -6.8490 C   0  0  0  0  0  0  0  0  0  0  0  0
   -0.4780   20.0310   -7.0090 C   0  0  0  0  0  0  0  0  0  0  0  0
   -1.6120   20.1320   -7.9880 C   0  0  0  0  0  0  0  0  0  0  0  0
   -2.0650   21.5350   -8.4460 C   0  0  0  0  0  0  0  0  0  0  0  0
   -3.3250   22.0840   -7.7700 C   0  0  2  0  0  0  0  0  0  0  0  0
   -4.4350   21.3680   -8.2630 O   0  0  0  0  0  0  0  0  0  0  0  0
   -3.8160   23.5130   -8.0420 C   0  0  1  0  0  0  0  0  0  0  0  0
   -3.8780   23.9870   -9.3630 O   0  0  0  0  0  0  0  0  0  0  0  0
   -5.5260   21.9510   -7.5560 C   0  0  2  0  0  0  0  0  0  0  0  0
   -5.2690   23.4510   -7.5950 C   0  0  1  0  0  0  0  0  0  0  0  0
   -5.5460   21.5030   -6.2060 O   0  0  0  0  0  0  0  0  0  0  0  0
   -5.5210   24.1400   -6.3810 O   0  0  0  0  0  0  0  0  0  0  0  0
  2  1  1  1
  2  3  1  0
  2  4  1  0
  4  5  1  1
  3  6  1  0
  4  7  1  0
  6  7  1  0
  7  8  1  6
  8  9  1  0
  9 10  1  0
 10 11  1  0
 11 12  1  0
 12 13  1  0
 14 13  1  6
 14 15  1  0
 14 16  1  0
 16 17  1  6
 15 18  1  0
 16 19  1  0
 18 19  1  0
 18 20  1  1
 19 21  1  1
M  END
>  <%Rank>  (1259) 
96.030534

>  <N_hits>  (1259) 
2

>  <submitter_name>  (1259) 
nan

>  <original SMILES>  (1259) 
nan

>  <∆G_unbound>  (1259) 
1.407194

>  <∆G_bound>  (1259) 
-11.653102

>  <regarded>  (1259) 
mArh-5cms_I_8_I_γ,5CB5_0_J_α

>  <ref_pdb>  (1259) 
nan

>  <smiles>  (1259) 
OC1COC(CCCCCCC2OC(O)C(O)C2O)C1O

>  <submitter_email>  (1259) 
nan

>  <disregarded>  (1259) 


>  <LE>  (1259) 
-0.621919

>  <submitter_institution>  (1259) 
nan

>  <ref_mols>  (1259) 
mArh-5cms_I_8_I,5CB5_0_J

>  <N_constrained_atoms>  (1259) 
17.0

>  <ref_url>  (1259) 
nan

>  <method>  (1259) 
nan

>  <comRMSD>  (1259) 
4.524342

>  <N_unconstrained_atoms>  (1259) 
4.0

>  <∆∆G>  (1259) 
-13.060296

>  <runtime>  (1259) 
31.468673

>  <generation_date>  (1259) 
nan

$$$$
mArh-5lw0_A_0_A_γ-5CB5_0_O_α
     RDKit          3D

 21 22  0  0  0  0  0  0  0  0999 V2000
   -0.3290   11.9850   -3.7400 O   0  0  0  0  0  0  0  0  0  0  0  0
   -0.6370   13.3450   -3.9680 C   0  0  1  0  0  0  0  0  0  0  0  0
   -0.5430   14.2120   -2.7170 C   0  0  0  0  0  0  0  0  0  0  0  0
    0.3740   14.0220   -4.8710 C   0  0  2  0  0  0  0  0  0  0  0  0
    1.6970   13.6450   -4.4690 O   0  0  0  0  0  0  0  0  0  0  0  0
   -0.1610   15.5250   -3.1670 O   0  0  0  0  0  0  0  0  0  0  0  0
   -0.0550   15.4590   -4.6070 C   0  0  1  0  0  0  0  0  0  0  0  0
    0.8310   16.6000   -5.0820 C   0  0  0  0  0  0  0  0  0  0  0  0
    0.1740   17.9800   -5.1960 C   0  0  0  0  0  0  0  0  0  0  0  0
    0.2940   18.6920   -6.5590 C   0  0  0  0  0  0  0  0  0  0  0  0
   -1.0360   19.3310   -7.0230 C   0  0  0  0  0  0  0  0  0  0  0  0
   -0.9440   20.3890   -8.1400 C   0  0  0  0  0  0  0  0  0  0  0  0
   -1.7220   21.6880   -7.8200 C   0  0  0  0  0  0  0  0  0  0  0  0
   -3.0610   21.9180   -8.5700 C   0  0  1  0  0  0  0  0  0  0  0  0
   -4.0780   21.0150   -8.0820 O   0  0  0  0  0  0  0  0  0  0  0  0
   -3.6070   23.3390   -8.3360 C   0  0  1  0  0  0  0  0  0  0  0  0
   -4.2640   23.9900   -9.4030 O   0  0  0  0  0  0  0  0  0  0  0  0
   -5.1730   21.8000   -7.6180 C   0  0  2  0  0  0  0  0  0  0  0  0
   -4.5690   23.1270   -7.1950 C   0  0  2  0  0  0  0  0  0  0  0  0
   -5.7830   21.1980   -6.4980 O   0  0  0  0  0  0  0  0  0  0  0  0
   -5.5280   24.1730   -7.1060 O   0  0  0  0  0  0  0  0  0  0  0  0
  2  1  1  1
  2  3  1  0
  2  4  1  0
  4  5  1  1
  3  6  1  0
  4  7  1  0
  6  7  1  0
  7  8  1  1
  8  9  1  0
  9 10  1  0
 10 11  1  0
 11 12  1  0
 12 13  1  0
 14 13  1  1
 14 15  1  0
 14 16  1  0
 16 17  1  6
 15 18  1  0
 16 19  1  0
 18 19  1  0
 18 20  1  1
 19 21  1  6
M  END
>  <%Rank>  (1260) 
96.10687

>  <N_hits>  (1260) 
2

>  <submitter_name>  (1260) 
nan

>  <original SMILES>  (1260) 
nan

>  <∆G_unbound>  (1260) 
1.407194

>  <∆G_bound>  (1260) 
-12.155069

>  <regarded>  (1260) 
mArh-5lw0_A_0_A_γ,5CB5_0_O_α

>  <ref_pdb>  (1260) 
nan

>  <smiles>  (1260) 
OC1COC(CCCCCCC2OC(O)C(O)C2O)C1O

>  <submitter_email>  (1260) 
nan

>  <disregarded>  (1260) 


>  <LE>  (1260) 
-0.645822

>  <submitter_institution>  (1260) 
nan

>  <ref_mols>  (1260) 
mArh-5lw0_A_0_A,5CB5_0_O

>  <N_constrained_atoms>  (1260) 
17.0

>  <ref_url>  (1260) 
nan

>  <method>  (1260) 
nan

>  <comRMSD>  (1260) 
4.537064

>  <N_unconstrained_atoms>  (1260) 
4.0

>  <∆∆G>  (1260) 
-13.562263

>  <runtime>  (1260) 
43.588691

>  <generation_date>  (1260) 
nan

$$$$
mArh-5cb5_J_2_J_γ-5DUS_0_A_α
     RDKit          3D

 21 22  0  0  0  0  0  0  0  0999 V2000
   -0.4380   12.3860   -3.9950 O   0  0  0  0  0  0  0  0  0  0  0  0
   -0.8770   13.7280   -4.0470 C   0  0  1  0  0  0  0  0  0  0  0  0
   -0.7510   14.4370   -2.7050 C   0  0  0  0  0  0  0  0  0  0  0  0
   -0.0130   14.5860   -4.9650 C   0  0  2  0  0  0  0  0  0  0  0  0
    1.3420   14.1390   -4.9230 O   0  0  0  0  0  0  0  0  0  0  0  0
   -0.1920   15.7290   -2.9630 O   0  0  0  0  0  0  0  0  0  0  0  0
   -0.3190   15.9550   -4.3670 C   0  0  1  0  0  0  0  0  0  0  0  0
    0.5560   17.1510   -4.7180 C   0  0  0  0  0  0  0  0  0  0  0  0
    0.4150   17.6570   -6.1360 C   0  0  0  0  0  0  0  0  0  0  0  0
   -0.0730   19.0750   -6.3380 C   0  0  0  0  0  0  0  0  0  0  0  0
   -1.0940   19.2190   -7.4640 C   0  0  0  0  0  0  0  0  0  0  0  0
   -1.1560   20.6100   -8.0900 C   0  0  0  0  0  0  0  0  0  0  0  0
   -2.0410   21.6600   -7.3820 C   0  0  0  0  0  0  0  0  0  0  0  0
   -3.4050   21.9030   -8.0570 C   0  0  1  0  0  0  0  0  0  0  0  0
   -4.3430   21.0090   -7.4290 O   0  0  0  0  0  0  0  0  0  0  0  0
   -3.9590   23.3410   -7.9330 C   0  0  1  0  0  0  0  0  0  0  0  0
   -4.1390   24.0310   -9.1510 O   0  0  0  0  0  0  0  0  0  0  0  0
   -5.5070   21.7290   -7.0430 C   0  0  2  0  0  0  0  0  0  0  0  0
   -5.3240   23.2240   -7.2980 C   0  0  1  0  0  0  0  0  0  0  0  0
   -5.7660   21.5220   -5.6750 O   0  0  0  0  0  0  0  0  0  0  0  0
   -5.4710   24.0690   -6.1620 O   0  0  0  0  0  0  0  0  0  0  0  0
  2  1  1  1
  2  3  1  0
  2  4  1  0
  4  5  1  1
  3  6  1  0
  4  7  1  0
  6  7  1  0
  7  8  1  6
  8  9  1  0
  9 10  1  0
 10 11  1  0
 11 12  1  0
 12 13  1  0
 14 13  1  1
 14 15  1  0
 14 16  1  0
 16 17  1  6
 15 18  1  0
 16 19  1  0
 18 19  1  0
 18 20  1  1
 19 21  1  1
M  END
>  <%Rank>  (1261) 
96.183206

>  <N_hits>  (1261) 
2

>  <submitter_name>  (1261) 
nan

>  <original SMILES>  (1261) 
nan

>  <∆G_unbound>  (1261) 
1.407194

>  <∆G_bound>  (1261) 
-12.5216

>  <regarded>  (1261) 
mArh-5cb5_J_2_J_γ,5DUS_0_A_α

>  <ref_pdb>  (1261) 
nan

>  <smiles>  (1261) 
OC1COC(CCCCCCC2OC(O)C(O)C2O)C1O

>  <submitter_email>  (1261) 
nan

>  <disregarded>  (1261) 


>  <LE>  (1261) 
-0.663276

>  <submitter_institution>  (1261) 
nan

>  <ref_mols>  (1261) 
mArh-5cb5_J_2_J,5DUS_0_A

>  <N_constrained_atoms>  (1261) 
17.0

>  <ref_url>  (1261) 
nan

>  <method>  (1261) 
nan

>  <comRMSD>  (1261) 
4.553148

>  <N_unconstrained_atoms>  (1261) 
4.0

>  <∆∆G>  (1261) 
-13.928793

>  <runtime>  (1261) 
37.78107

>  <generation_date>  (1261) 
nan

$$$$
mArh-6woj_D_0_D_γ-5CB5_0_J_α
     RDKit          3D

 21 22  0  0  0  0  0  0  0  0999 V2000
   -0.6780   12.2240   -4.3900 O   0  0  0  0  0  0  0  0  0  0  0  0
   -0.7390   13.6360   -4.3160 C   0  0  1  0  0  0  0  0  0  0  0  0
   -0.4280   14.2100   -2.9370 C   0  0  0  0  0  0  0  0  0  0  0  0
    0.3330   14.3110   -5.1370 C   0  0  2  0  0  0  0  0  0  0  0  0
    1.6060   13.7230   -4.8650 O   0  0  0  0  0  0  0  0  0  0  0  0
    0.1270   15.5200   -3.1720 O   0  0  0  0  0  0  0  0  0  0  0  0
    0.0780   15.7150   -4.6050 C   0  0  1  0  0  0  0  0  0  0  0  0
    1.0280   16.8190   -5.0070 C   0  0  0  0  0  0  0  0  0  0  0  0
    0.4630   18.2120   -5.3100 C   0  0  0  0  0  0  0  0  0  0  0  0
    0.0440   18.5070   -6.7660 C   0  0  0  0  0  0  0  0  0  0  0  0
   -0.4650   19.9510   -6.9730 C   0  0  0  0  0  0  0  0  0  0  0  0
   -1.5800   20.1270   -7.9800 C   0  0  0  0  0  0  0  0  0  0  0  0
   -1.9390   21.5730   -8.3980 C   0  0  0  0  0  0  0  0  0  0  0  0
   -3.2370   22.1380   -7.7940 C   0  0  2  0  0  0  0  0  0  0  0  0
   -4.3200   21.3350   -8.2160 O   0  0  0  0  0  0  0  0  0  0  0  0
   -3.7740   23.5040   -8.2410 C   0  0  1  0  0  0  0  0  0  0  0  0
   -3.8160   23.7210   -9.6390 O   0  0  0  0  0  0  0  0  0  0  0  0
   -5.4580   21.9590   -7.6180 C   0  0  2  0  0  0  0  0  0  0  0  0
   -5.2130   23.4620   -7.7220 C   0  0  1  0  0  0  0  0  0  0  0  0
   -5.5660   21.5720   -6.2510 O   0  0  0  0  0  0  0  0  0  0  0  0
   -5.4360   24.1690   -6.5010 O   0  0  0  0  0  0  0  0  0  0  0  0
  2  1  1  1
  2  3  1  0
  2  4  1  0
  4  5  1  1
  3  6  1  0
  4  7  1  0
  6  7  1  0
  7  8  1  6
  8  9  1  0
  9 10  1  0
 10 11  1  0
 11 12  1  0
 12 13  1  0
 14 13  1  6
 14 15  1  0
 14 16  1  0
 16 17  1  6
 15 18  1  0
 16 19  1  0
 18 19  1  0
 18 20  1  1
 19 21  1  1
M  END
>  <%Rank>  (1262) 
96.259542

>  <N_hits>  (1262) 
2

>  <submitter_name>  (1262) 
nan

>  <original SMILES>  (1262) 
nan

>  <∆G_unbound>  (1262) 
1.407194

>  <∆G_bound>  (1262) 
-11.728133

>  <regarded>  (1262) 
mArh-6woj_D_0_D_γ,5CB5_0_J_α

>  <ref_pdb>  (1262) 
nan

>  <smiles>  (1262) 
OC1COC(CCCCCCC2OC(O)C(O)C2O)C1O

>  <submitter_email>  (1262) 
nan

>  <disregarded>  (1262) 


>  <LE>  (1262) 
-0.625492

>  <submitter_institution>  (1262) 
nan

>  <ref_mols>  (1262) 
mArh-6woj_D_0_D,5CB5_0_J

>  <N_constrained_atoms>  (1262) 
17.0

>  <ref_url>  (1262) 
nan

>  <method>  (1262) 
nan

>  <comRMSD>  (1262) 
4.562142

>  <N_unconstrained_atoms>  (1262) 
4.0

>  <∆∆G>  (1262) 
-13.135327

>  <runtime>  (1262) 
31.832479

>  <generation_date>  (1262) 
nan

$$$$
5CMS_0_J_γ-mArh-5cb5_L_0_L_α
     RDKit          3D

 21 22  0  0  0  0  0  0  0  0999 V2000
   -1.2370   12.2050   -4.5350 O   0  0  0  0  0  0  0  0  0  0  0  0
   -1.2460   13.6160   -4.5440 C   0  0  1  0  0  0  0  0  0  0  0  0
   -1.0680   14.2750   -3.1800 C   0  0  0  0  0  0  0  0  0  0  0  0
   -0.0190   14.1280   -5.2480 C   0  0  2  0  0  0  0  0  0  0  0  0
    1.1170   13.4200   -4.7530 O   0  0  0  0  0  0  0  0  0  0  0  0
   -0.3700   15.5170   -3.4240 O   0  0  0  0  0  0  0  0  0  0  0  0
   -0.1710   15.5930   -4.8510 C   0  0  1  0  0  0  0  0  0  0  0  0
    0.9790   16.5470   -5.1530 C   0  0  0  0  0  0  0  0  0  0  0  0
    0.6540   18.0420   -5.3140 C   0  0  0  0  0  0  0  0  0  0  0  0
   -0.5640   18.3660   -6.1950 C   0  0  0  0  0  0  0  0  0  0  0  0
   -0.5580   19.7800   -6.8080 C   0  0  0  0  0  0  0  0  0  0  0  0
   -1.4890   19.9340   -7.9860 C   0  0  0  0  0  0  0  0  0  0  0  0
   -1.7700   21.3520   -8.5360 C   0  0  0  0  0  0  0  0  0  0  0  0
   -2.8850   22.0820   -7.7920 C   0  0  2  0  0  0  0  0  0  0  0  0
   -4.0650   21.3270   -7.8810 O   0  0  0  0  0  0  0  0  0  0  0  0
   -3.4290   23.4750   -8.1700 C   0  0  1  0  0  0  0  0  0  0  0  0
   -3.8540   23.7710   -9.4930 O   0  0  0  0  0  0  0  0  0  0  0  0
   -4.7900   22.0170   -6.8840 C   0  0  1  0  0  0  0  0  0  0  0  0
   -4.6760   23.5070   -7.2830 C   0  0  2  0  0  0  0  0  0  0  0  0
   -6.1080   21.5260   -6.7760 O   0  0  0  0  0  0  0  0  0  0  0  0
   -5.7760   24.0480   -8.0300 O   0  0  0  0  0  0  0  0  0  0  0  0
  2  1  1  1
  2  3  1  0
  2  4  1  0
  4  5  1  1
  3  6  1  0
  4  7  1  0
  6  7  1  0
  7  8  1  1
  8  9  1  0
  9 10  1  0
 10 11  1  0
 11 12  1  0
 12 13  1  0
 14 13  1  6
 14 15  1  0
 14 16  1  0
 16 17  1  6
 15 18  1  0
 16 19  1  0
 18 19  1  0
 18 20  1  6
 19 21  1  6
M  END
>  <%Rank>  (1263) 
96.335878

>  <N_hits>  (1263) 
2

>  <submitter_name>  (1263) 
nan

>  <original SMILES>  (1263) 
nan

>  <∆G_unbound>  (1263) 
1.407194

>  <∆G_bound>  (1263) 
-11.353143

>  <regarded>  (1263) 
5CMS_0_J_γ,mArh-5cb5_L_0_L_α

>  <ref_pdb>  (1263) 
nan

>  <smiles>  (1263) 
OC1COC(CCCCCCC2OC(O)C(O)C2O)C1O

>  <submitter_email>  (1263) 
nan

>  <disregarded>  (1263) 


>  <LE>  (1263) 
-0.607635

>  <submitter_institution>  (1263) 
nan

>  <ref_mols>  (1263) 
5CMS_0_J,mArh-5cb5_L_0_L

>  <N_constrained_atoms>  (1263) 
17.0

>  <ref_url>  (1263) 
nan

>  <method>  (1263) 
nan

>  <comRMSD>  (1263) 
4.556026

>  <N_unconstrained_atoms>  (1263) 
4.0

>  <∆∆G>  (1263) 
-12.760337

>  <runtime>  (1263) 
40.266129

>  <generation_date>  (1263) 
nan

$$$$
5CMS_0_B_γ-mArh-5cms_M_12_M_α
     RDKit          3D

 21 22  0  0  0  0  0  0  0  0999 V2000
   -0.1950   12.0680   -3.7900 O   0  0  0  0  0  0  0  0  0  0  0  0
   -0.5820   13.4250   -3.8910 C   0  0  1  0  0  0  0  0  0  0  0  0
   -0.3830   14.2420   -2.6220 C   0  0  0  0  0  0  0  0  0  0  0  0
    0.2970   14.1950   -4.8510 C   0  0  1  0  0  0  0  0  0  0  0  0
    0.0910   13.6990   -6.1630 O   0  0  0  0  0  0  0  0  0  0  0  0
   -0.0900   15.5850   -3.0640 O   0  0  0  0  0  0  0  0  0  0  0  0
   -0.2100   15.5860   -4.5050 C   0  0  1  0  0  0  0  0  0  0  0  0
    0.5100   16.8140   -5.0680 C   0  0  0  0  0  0  0  0  0  0  0  0
   -0.3940   17.9900   -5.4680 C   0  0  0  0  0  0  0  0  0  0  0  0
    0.0370   18.7510   -6.7350 C   0  0  0  0  0  0  0  0  0  0  0  0
   -1.1590   19.1980   -7.5910 C   0  0  0  0  0  0  0  0  0  0  0  0
   -1.6170   20.6630   -7.4820 C   0  0  0  0  0  0  0  0  0  0  0  0
   -1.6100   21.3910   -8.8390 C   0  0  0  0  0  0  0  0  0  0  0  0
   -2.9650   21.9840   -9.2790 C   0  0  2  0  0  0  0  0  0  0  0  0
   -3.2440   21.6350  -10.6410 O   0  0  0  0  0  0  0  0  0  0  0  0
   -3.0420   23.5050   -9.2250 C   0  0  1  0  0  0  0  0  0  0  0  0
   -1.7850   24.1130   -9.0510 O   0  0  0  0  0  0  0  0  0  0  0  0
   -4.1110   22.6240  -11.2020 C   0  0  2  0  0  0  0  0  0  0  0  0
   -3.7840   23.9300  -10.5050 C   0  0  1  0  0  0  0  0  0  0  0  0
   -5.4720   22.3420  -10.9800 O   0  0  0  0  0  0  0  0  0  0  0  0
   -4.9270   24.6850  -10.2570 O   0  0  0  0  0  0  0  0  0  0  0  0
  2  1  1  1
  2  3  1  0
  2  4  1  0
  4  5  1  6
  3  6  1  0
  4  7  1  0
  6  7  1  0
  7  8  1  6
  8  9  1  0
  9 10  1  0
 10 11  1  0
 11 12  1  0
 12 13  1  0
 14 13  1  6
 14 15  1  0
 14 16  1  0
 16 17  1  6
 15 18  1  0
 16 19  1  0
 18 19  1  0
 18 20  1  1
 19 21  1  1
M  END
>  <%Rank>  (1264) 
96.412214

>  <N_hits>  (1264) 
2

>  <submitter_name>  (1264) 
nan

>  <original SMILES>  (1264) 
nan

>  <∆G_unbound>  (1264) 
1.407194

>  <∆G_bound>  (1264) 
-7.386643

>  <regarded>  (1264) 
5CMS_0_B_γ,mArh-5cms_M_12_M_α

>  <ref_pdb>  (1264) 
nan

>  <smiles>  (1264) 
OC1COC(CCCCCCC2OC(O)C(O)C2O)C1O

>  <submitter_email>  (1264) 
nan

>  <disregarded>  (1264) 


>  <LE>  (1264) 
-0.418754

>  <submitter_institution>  (1264) 
nan

>  <ref_mols>  (1264) 
5CMS_0_B,mArh-5cms_M_12_M

>  <N_constrained_atoms>  (1264) 
17.0

>  <ref_url>  (1264) 
nan

>  <method>  (1264) 
nan

>  <comRMSD>  (1264) 
4.462815

>  <N_unconstrained_atoms>  (1264) 
4.0

>  <∆∆G>  (1264) 
-8.793837

>  <runtime>  (1264) 
40.154056

>  <generation_date>  (1264) 
nan

$$$$
mArh-5cb3_0_A_γ-5CB5_0_F_α
     RDKit          3D

 24 25  0  0  0  0  0  0  0  0999 V2000
   -1.7050   12.9760   -4.3920 O   0  0  0  0  0  0  0  0  0  0  0  0
   -0.5880   13.6820   -3.8740 C   0  0  2  0  0  0  0  0  0  0  0  0
   -0.9520   14.8350   -2.9640 C   0  0  0  0  0  0  0  0  0  0  0  0
    0.2280   14.3420   -4.9830 C   0  0  2  0  0  0  0  0  0  0  0  0
    1.4110   13.5550   -5.1530 O   0  0  0  0  0  0  0  0  0  0  0  0
    0.1250   15.7640   -3.0660 O   0  0  0  0  0  0  0  0  0  0  0  0
    0.5270   15.7640   -4.4510 C   0  0  2  0  0  0  0  0  0  0  0  0
   -0.1790   16.9260   -5.1670 C   0  0  0  0  0  0  0  0  0  0  0  0
    0.8020   17.8600   -5.8810 C   0  0  0  0  0  0  0  0  0  0  0  0
    0.1610   19.1210   -6.4650 C   0  0  0  0  0  0  0  0  0  0  0  0
   -0.6590   19.0050   -7.7370 C   0  0  0  0  0  0  0  0  0  0  0  0
   -0.7920   20.3580   -8.4510 C   0  0  0  0  0  0  0  0  0  0  0  0
   -1.8390   21.3310   -7.9120 C   0  0  0  0  0  0  0  0  0  0  0  0
   -2.9310   21.6590   -8.9470 C   0  0  2  0  0  0  0  0  0  0  0  0
   -3.2790   23.1240   -8.9950 C   0  0  1  0  0  0  0  0  0  0  0  0
   -4.1530   21.0550   -8.5180 O   0  0  0  0  0  0  0  0  0  0  0  0
   -4.2050   23.4180  -10.0610 O   0  0  0  0  0  0  0  0  0  0  0  0
   -3.9620   23.2030   -7.6950 C   0  0  2  0  0  0  0  0  0  0  0  0
   -4.8940   21.9990   -7.7730 C   0  0  2  0  0  0  0  0  0  0  0  0
   -4.6410   24.4010   -7.6960 O   0  0  0  0  0  0  0  0  0  0  0  0
   -5.2750   21.4640   -6.5060 O   0  0  0  0  0  0  0  0  0  0  0  0
   -5.1710   24.4650   -6.4480 C   0  0  1  0  0  0  0  0  0  0  0  0
   -4.5390   25.6570   -5.7620 C   0  0  0  0  0  0  0  0  0  0  0  0
   -6.5250   24.5290   -6.7270 O   0  0  0  0  0  0  0  0  0  0  0  0
  2  1  1  6
  2  3  1  0
  2  4  1  0
  4  5  1  1
  3  6  1  0
  4  7  1  0
  6  7  1  0
  7  8  1  6
  8  9  1  0
  9 10  1  0
 10 11  1  0
 11 12  1  0
 12 13  1  0
 14 13  1  1
 14 15  1  0
 14 16  1  0
 15 17  1  6
 15 18  1  0
 16 19  1  0
 18 19  1  0
 18 20  1  6
 19 21  1  1
 20 22  1  0
 22 23  1  6
 22 24  1  0
M  END
>  <%Rank>  (1265) 
96.48855

>  <N_hits>  (1265) 
2

>  <submitter_name>  (1265) 
nan

>  <original SMILES>  (1265) 
nan

>  <∆G_unbound>  (1265) 
0.413126

>  <∆G_bound>  (1265) 
-8.598125

>  <regarded>  (1265) 
mArh-5cb3_0_A_γ,5CB5_0_F_α

>  <ref_pdb>  (1265) 
nan

>  <smiles>  (1265) 
C[C@@H](O)OC1C(O)OC(CCCCCCC2OCC(O)C2O)C1O

>  <submitter_email>  (1265) 
nan

>  <disregarded>  (1265) 


>  <LE>  (1265) 
-0.375469

>  <submitter_institution>  (1265) 
nan

>  <ref_mols>  (1265) 
mArh-5cb3_0_A,5CB5_0_F

>  <N_constrained_atoms>  (1265) 
20.0

>  <ref_url>  (1265) 
nan

>  <method>  (1265) 
nan

>  <comRMSD>  (1265) 
4.532641

>  <N_unconstrained_atoms>  (1265) 
4.0

>  <∆∆G>  (1265) 
-9.011251

>  <runtime>  (1265) 
57.156618

>  <generation_date>  (1265) 
nan

$$$$
mArh-5cb5_G_0_G_γ-5CMS_0_P_α
     RDKit          3D

 21 22  0  0  0  0  0  0  0  0999 V2000
   -0.6780   12.2990   -3.9730 O   0  0  0  0  0  0  0  0  0  0  0  0
   -1.0040   13.6610   -4.1500 C   0  0  1  0  0  0  0  0  0  0  0  0
   -0.7890   14.4930   -2.8890 C   0  0  0  0  0  0  0  0  0  0  0  0
   -0.0740   14.3200   -5.1410 C   0  0  2  0  0  0  0  0  0  0  0  0
    1.2370   13.7820   -4.9960 O   0  0  0  0  0  0  0  0  0  0  0  0
   -0.2010   15.7340   -3.2980 O   0  0  0  0  0  0  0  0  0  0  0  0
   -0.2890   15.7700   -4.7280 C   0  0  1  0  0  0  0  0  0  0  0  0
    0.6730   16.8350   -5.2180 C   0  0  0  0  0  0  0  0  0  0  0  0
    0.0250   18.1520   -5.6090 C   0  0  0  0  0  0  0  0  0  0  0  0
    0.7860   18.8410   -6.7290 C   0  0  0  0  0  0  0  0  0  0  0  0
   -0.0960   19.3010   -7.8850 C   0  0  0  0  0  0  0  0  0  0  0  0
   -0.2880   20.8150   -8.1000 C   0  0  0  0  0  0  0  0  0  0  0  0
   -1.5780   20.9780   -8.8990 C   0  0  0  0  0  0  0  0  0  0  0  0
   -1.6150   21.9290  -10.0930 C   0  0  1  0  0  0  0  0  0  0  0  0
   -2.9530   22.4210  -10.2470 O   0  0  0  0  0  0  0  0  0  0  0  0
   -0.7050   23.1490   -9.9880 C   0  0  1  0  0  0  0  0  0  0  0  0
    0.6150   23.0060  -10.4640 O   0  0  0  0  0  0  0  0  0  0  0  0
   -2.7990   23.5220  -11.1200 C   0  0  2  0  0  0  0  0  0  0  0  0
   -1.4750   24.2050  -10.7220 C   0  0  2  0  0  0  0  0  0  0  0  0
   -3.9040   24.4010  -10.9940 O   0  0  0  0  0  0  0  0  0  0  0  0
   -0.7780   24.8060  -11.7820 O   0  0  0  0  0  0  0  0  0  0  0  0
  2  1  1  1
  2  3  1  0
  2  4  1  0
  4  5  1  1
  3  6  1  0
  4  7  1  0
  6  7  1  0
  7  8  1  6
  8  9  1  0
  9 10  1  0
 10 11  1  0
 11 12  1  0
 12 13  1  0
 14 13  1  1
 14 15  1  0
 14 16  1  0
 16 17  1  6
 15 18  1  0
 16 19  1  0
 18 19  1  0
 18 20  1  1
 19 21  1  6
M  END
>  <%Rank>  (1266) 
96.564885

>  <N_hits>  (1266) 
2

>  <submitter_name>  (1266) 
nan

>  <original SMILES>  (1266) 
nan

>  <∆G_unbound>  (1266) 
1.407194

>  <∆G_bound>  (1266) 
-7.305058

>  <regarded>  (1266) 
mArh-5cb5_G_0_G_γ,5CMS_0_P_α

>  <ref_pdb>  (1266) 
nan

>  <smiles>  (1266) 
OC1COC(CCCCCCC2OC(O)C(O)C2O)C1O

>  <submitter_email>  (1266) 
nan

>  <disregarded>  (1266) 


>  <LE>  (1266) 
-0.414869

>  <submitter_institution>  (1266) 
nan

>  <ref_mols>  (1266) 
mArh-5cb5_G_0_G,5CMS_0_P

>  <N_constrained_atoms>  (1266) 
17.0

>  <ref_url>  (1266) 
nan

>  <method>  (1266) 
nan

>  <comRMSD>  (1266) 
4.489569

>  <N_unconstrained_atoms>  (1266) 
4.0

>  <∆∆G>  (1266) 
-8.712251

>  <runtime>  (1266) 
48.045337

>  <generation_date>  (1266) 
nan

$$$$
6WOJ_0_D_α-5L9K_0_A_γ
     RDKit          3D

 21 22  0  0  0  0  0  0  0  0999 V2000
   -1.4550   22.0500   -7.9960 C   0  0  0  0  0  0  0  0  0  0  0  0
   -2.8660   22.2670   -7.5020 C   0  0  2  0  0  0  0  0  0  0  0  0
   -3.7760   21.2770   -7.9540 O   0  0  0  0  0  0  0  0  0  0  0  0
   -3.5990   23.5850   -7.7550 C   0  0  1  0  0  0  0  0  0  0  0  0
   -3.8370   23.9490   -9.1090 O   0  0  0  0  0  0  0  0  0  0  0  0
   -4.9260   21.6300   -7.2030 C   0  0  2  0  0  0  0  0  0  0  0  0
   -4.9560   23.1970   -7.2140 C   0  0  1  0  0  0  0  0  0  0  0  0
   -4.7800   21.0910   -5.8860 O   0  0  0  0  0  0  0  0  0  0  0  0
   -5.1770   23.8360   -5.9530 O   0  0  0  0  0  0  0  0  0  0  0  0
   -3.3770   20.8490   -5.5680 C   0  0  0  0  0  0  0  0  0  0  0  0
   -2.6640   19.6600   -6.2890 C   0  0  0  0  0  0  0  0  0  0  0  0
   -1.8470   18.6640   -5.4060 C   0  0  0  0  0  0  0  0  0  0  0  0
   -0.5940   18.0470   -6.0710 C   0  0  0  0  0  0  0  0  0  0  0  0
    0.0780   16.8740   -5.2870 C   0  0  0  0  0  0  0  0  0  0  0  0
   -0.8920   15.8800   -4.6120 C   0  0  2  0  0  0  0  0  0  0  0  0
   -0.5820   15.7120   -3.2090 O   0  0  0  0  0  0  0  0  0  0  0  0
   -0.9290   14.4010   -5.0150 C   0  0  1  0  0  0  0  0  0  0  0  0
    0.2670   13.6840   -4.7150 O   0  0  0  0  0  0  0  0  0  0  0  0
   -1.4590   14.6500   -2.7600 C   0  0  0  0  0  0  0  0  0  0  0  0
   -2.0220   14.0090   -4.0340 C   0  0  2  0  0  0  0  0  0  0  0  0
   -2.1130   12.5840   -3.9510 O   0  0  0  0  0  0  0  0  0  0  0  0
  2  1  1  6
  2  3  1  0
  2  4  1  0
  4  5  1  6
  3  6  1  0
  4  7  1  0
  6  7  1  0
  6  8  1  1
  7  9  1  1
  8 10  1  0
 10 11  1  0
 11 12  1  0
 12 13  1  0
 13 14  1  0
 15 14  1  6
 15 16  1  0
 15 17  1  0
 17 18  1  1
 16 19  1  0
 17 20  1  0
 19 20  1  0
 20 21  1  1
M  END
>  <%Rank>  (1267) 
96.641221

>  <N_hits>  (1267) 
2

>  <submitter_name>  (1267) 
nan

>  <original SMILES>  (1267) 
nan

>  <∆G_unbound>  (1267) 
1.488534

>  <∆G_bound>  (1267) 
-9.338199

>  <regarded>  (1267) 
6WOJ_0_D_α,5L9K_0_A_γ

>  <ref_pdb>  (1267) 
nan

>  <smiles>  (1267) 
CC1OC(OCCCCCC2OCC(O)C2O)C(O)C1O

>  <submitter_email>  (1267) 
nan

>  <disregarded>  (1267) 


>  <LE>  (1267) 
-0.515559

>  <submitter_institution>  (1267) 
nan

>  <ref_mols>  (1267) 
6WOJ_0_D,5L9K_0_A

>  <N_constrained_atoms>  (1267) 
17.0

>  <ref_url>  (1267) 
nan

>  <method>  (1267) 
nan

>  <comRMSD>  (1267) 
4.542516

>  <N_unconstrained_atoms>  (1267) 
4.0

>  <∆∆G>  (1267) 
-10.826733

>  <runtime>  (1267) 
44.911727

>  <generation_date>  (1267) 
nan

$$$$
6WOJ_0_D_γ-5LW0_0_A_α
     RDKit          3D

 21 22  0  0  0  0  0  0  0  0999 V2000
   -0.8230   12.2270   -4.4030 O   0  0  0  0  0  0  0  0  0  0  0  0
   -0.8390   13.6390   -4.3160 C   0  0  1  0  0  0  0  0  0  0  0  0
   -0.5190   14.1830   -2.9290 C   0  0  0  0  0  0  0  0  0  0  0  0
    0.2660   14.2820   -5.1140 C   0  0  2  0  0  0  0  0  0  0  0  0
    1.5110   13.6400   -4.8280 O   0  0  0  0  0  0  0  0  0  0  0  0
    0.0530   15.4890   -3.1390 O   0  0  0  0  0  0  0  0  0  0  0  0
    0.0700   15.6920   -4.5680 C   0  0  1  0  0  0  0  0  0  0  0  0
    1.1380   16.6910   -4.9030 C   0  0  0  0  0  0  0  0  0  0  0  0
    0.8050   17.9590   -5.6870 C   0  0  0  0  0  0  0  0  0  0  0  0
   -0.6610   18.3940   -5.7140 C   0  0  0  0  0  0  0  0  0  0  0  0
   -0.8110   19.6950   -6.5120 C   0  0  0  0  0  0  0  0  0  0  0  0
   -1.6450   19.6000   -7.7520 C   0  0  0  0  0  0  0  0  0  0  0  0
   -2.0810   20.9560   -8.3460 C   0  0  0  0  0  0  0  0  0  0  0  0
   -3.4440   21.4630   -7.8510 C   0  0  2  0  0  0  0  0  0  0  0  0
   -4.3340   20.3880   -7.5670 O   0  0  0  0  0  0  0  0  0  0  0  0
   -4.3090   22.3900   -8.7300 C   0  0  1  0  0  0  0  0  0  0  0  0
   -4.4960   22.0450  -10.0880 O   0  0  0  0  0  0  0  0  0  0  0  0
   -5.4250   21.1330   -7.0630 C   0  0  1  0  0  0  0  0  0  0  0  0
   -5.6340   22.3250   -7.9830 C   0  0  1  0  0  0  0  0  0  0  0  0
   -6.5930   20.3690   -7.0290 O   0  0  0  0  0  0  0  0  0  0  0  0
   -5.9290   23.5340   -7.2850 O   0  0  0  0  0  0  0  0  0  0  0  0
  2  1  1  1
  2  3  1  0
  2  4  1  0
  4  5  1  1
  3  6  1  0
  4  7  1  0
  6  7  1  0
  7  8  1  1
  8  9  1  0
  9 10  1  0
 10 11  1  0
 11 12  1  0
 12 13  1  0
 14 13  1  6
 14 15  1  0
 14 16  1  0
 16 17  1  6
 15 18  1  0
 16 19  1  0
 18 19  1  0
 18 20  1  6
 19 21  1  1
M  END
>  <%Rank>  (1268) 
96.717557

>  <N_hits>  (1268) 
2

>  <submitter_name>  (1268) 
nan

>  <original SMILES>  (1268) 
nan

>  <∆G_unbound>  (1268) 
1.407194

>  <∆G_bound>  (1268) 
-8.588755

>  <regarded>  (1268) 
6WOJ_0_D_γ,5LW0_0_A_α

>  <ref_pdb>  (1268) 
nan

>  <smiles>  (1268) 
OC1COC(CCCCCCC2OC(O)C(O)C2O)C1O

>  <submitter_email>  (1268) 
nan

>  <disregarded>  (1268) 


>  <LE>  (1268) 
-0.475998

>  <submitter_institution>  (1268) 
nan

>  <ref_mols>  (1268) 
6WOJ_0_D,5LW0_0_A

>  <N_constrained_atoms>  (1268) 
17.0

>  <ref_url>  (1268) 
nan

>  <method>  (1268) 
nan

>  <comRMSD>  (1268) 
4.531132

>  <N_unconstrained_atoms>  (1268) 
4.0

>  <∆∆G>  (1268) 
-9.995949

>  <runtime>  (1268) 
31.506333

>  <generation_date>  (1268) 
nan

$$$$
6FX7_0_A_γ-mArh-6woj_B_0_B_α
     RDKit          3D

 20 21  0  0  0  0  0  0  0  0999 V2000
   -1.0260   12.5910   -4.1390 O   0  0  0  0  0  0  0  0  0  0  0  0
   -1.1860   13.9890   -4.2270 C   0  0  1  0  0  0  0  0  0  0  0  0
   -0.7800   14.7780   -2.9850 C   0  0  0  0  0  0  0  0  0  0  0  0
   -0.2370   14.5680   -5.2350 C   0  0  2  0  0  0  0  0  0  0  0  0
    1.0820   14.0840   -4.9650 O   0  0  0  0  0  0  0  0  0  0  0  0
   -0.2350   16.0260   -3.4620 O   0  0  0  0  0  0  0  0  0  0  0  0
   -0.4980   16.0340   -4.8770 C   0  0  1  0  0  0  0  0  0  0  0  0
    0.2140   17.1960   -5.6000 C   0  0  0  0  0  0  0  0  0  0  0  0
   -0.7190   17.9730   -6.5660 C   0  0  0  0  0  0  0  0  0  0  0  0
   -0.4810   19.4630   -6.5480 C   0  0  0  0  0  0  0  0  0  0  0  0
   -0.9760   20.2490   -7.7680 C   0  0  0  0  0  0  0  0  0  0  0  0
   -1.5860   21.6200   -7.4140 C   0  0  0  0  0  0  0  0  0  0  0  0
   -2.9870   21.9520   -7.9770 C   0  0  1  0  0  0  0  0  0  0  0  0
   -3.8950   21.1450   -7.2010 O   0  0  0  0  0  0  0  0  0  0  0  0
   -3.5330   23.4090   -7.8560 C   0  0  1  0  0  0  0  0  0  0  0  0
   -4.3170   23.8880   -8.9540 O   0  0  0  0  0  0  0  0  0  0  0  0
   -4.9780   21.9610   -6.8010 C   0  0  2  0  0  0  0  0  0  0  0  0
   -4.3480   23.3150   -6.5730 C   0  0  2  0  0  0  0  0  0  0  0  0
   -5.5590   21.4830   -5.5990 O   0  0  0  0  0  0  0  0  0  0  0  0
   -5.3690   24.3210   -6.4860 O   0  0  0  0  0  0  0  0  0  0  0  0
  2  1  1  1
  2  3  1  0
  2  4  1  0
  4  5  1  1
  3  6  1  0
  4  7  1  0
  6  7  1  0
  7  8  1  6
  8  9  1  0
  9 10  1  0
 10 11  1  0
 11 12  1  0
 13 12  1  1
 13 14  1  0
 13 15  1  0
 15 16  1  6
 14 17  1  0
 15 18  1  0
 17 18  1  0
 17 19  1  1
 18 20  1  6
M  END
>  <%Rank>  (1269) 
96.793893

>  <N_hits>  (1269) 
2

>  <submitter_name>  (1269) 
nan

>  <original SMILES>  (1269) 
nan

>  <∆G_unbound>  (1269) 
0.321043

>  <∆G_bound>  (1269) 
-10.365756

>  <regarded>  (1269) 
6FX7_0_A_γ,mArh-6woj_B_0_B_α

>  <ref_pdb>  (1269) 
nan

>  <smiles>  (1269) 
OC1COC(CCCCCC2OC(O)C(O)C2O)C1O

>  <submitter_email>  (1269) 
nan

>  <disregarded>  (1269) 


>  <LE>  (1269) 
-0.53434

>  <submitter_institution>  (1269) 
nan

>  <ref_mols>  (1269) 
6FX7_0_A,mArh-6woj_B_0_B

>  <N_constrained_atoms>  (1269) 
17.0

>  <ref_url>  (1269) 
nan

>  <method>  (1269) 
nan

>  <comRMSD>  (1269) 
4.606516

>  <N_unconstrained_atoms>  (1269) 
3.0

>  <∆∆G>  (1269) 
-10.6868

>  <runtime>  (1269) 
42.798525

>  <generation_date>  (1269) 
nan

$$$$
mArh-2bfq_0_A_γ-2BFQ_1_A_α
     RDKit          3D

 21 22  0  0  0  0  0  0  0  0999 V2000
   -0.8730   12.7720   -4.0570 O   0  0  0  0  0  0  0  0  0  0  0  0
   -0.9720   14.1780   -3.9400 C   0  0  1  0  0  0  0  0  0  0  0  0
   -0.5340   14.7170   -2.5800 C   0  0  0  0  0  0  0  0  0  0  0  0
   -0.0040   14.9170   -4.8480 C   0  0  2  0  0  0  0  0  0  0  0  0
    1.2900   14.3230   -4.7440 O   0  0  0  0  0  0  0  0  0  0  0  0
    0.1210   15.9780   -2.8460 O   0  0  0  0  0  0  0  0  0  0  0  0
   -0.2290   16.2810   -4.2030 C   0  0  1  0  0  0  0  0  0  0  0  0
    0.4490   17.5680   -4.6990 C   0  0  0  0  0  0  0  0  0  0  0  0
    0.4860   17.6730   -6.2110 C   0  0  0  0  0  0  0  0  0  0  0  0
    0.4180   19.0220   -6.9520 C   0  0  0  0  0  0  0  0  0  0  0  0
   -0.9670   19.7160   -6.9820 C   0  0  0  0  0  0  0  0  0  0  0  0
   -1.1260   20.7430   -8.1270 C   0  0  0  0  0  0  0  0  0  0  0  0
   -1.5360   22.1800   -7.7300 C   0  0  0  0  0  0  0  0  0  0  0  0
   -2.9920   22.4410   -7.2700 C   0  0  2  0  0  0  0  0  0  0  0  0
   -3.9680   21.5060   -7.7010 O   0  0  0  0  0  0  0  0  0  0  0  0
   -3.6690   23.7600   -7.6630 C   0  0  1  0  0  0  0  0  0  0  0  0
   -3.9010   24.0480   -9.0300 O   0  0  0  0  0  0  0  0  0  0  0  0
   -5.0980   22.0260   -6.9750 C   0  0  1  0  0  0  0  0  0  0  0  0
   -5.0260   23.5500   -7.0660 C   0  0  1  0  0  0  0  0  0  0  0  0
   -6.3250   21.6330   -7.5440 O   0  0  0  0  0  0  0  0  0  0  0  0
   -5.2300   24.2340   -5.8550 O   0  0  0  0  0  0  0  0  0  0  0  0
  2  1  1  1
  2  3  1  0
  2  4  1  0
  4  5  1  1
  3  6  1  0
  4  7  1  0
  6  7  1  0
  7  8  1  6
  8  9  1  0
  9 10  1  0
 10 11  1  0
 11 12  1  0
 12 13  1  0
 14 13  1  6
 14 15  1  0
 14 16  1  0
 16 17  1  6
 15 18  1  0
 16 19  1  0
 18 19  1  0
 18 20  1  6
 19 21  1  1
M  END
>  <%Rank>  (1270) 
96.870229

>  <N_hits>  (1270) 
2

>  <submitter_name>  (1270) 
nan

>  <original SMILES>  (1270) 
nan

>  <∆G_unbound>  (1270) 
1.407194

>  <∆G_bound>  (1270) 
-10.761527

>  <regarded>  (1270) 
mArh-2bfq_0_A_γ,2BFQ_1_A_α

>  <ref_pdb>  (1270) 
nan

>  <smiles>  (1270) 
OC1COC(CCCCCCC2OC(O)C(O)C2O)C1O

>  <submitter_email>  (1270) 
nan

>  <disregarded>  (1270) 


>  <LE>  (1270) 
-0.579463

>  <submitter_institution>  (1270) 
nan

>  <ref_mols>  (1270) 
mArh-2bfq_0_A,2BFQ_1_A

>  <N_constrained_atoms>  (1270) 
17.0

>  <ref_url>  (1270) 
nan

>  <method>  (1270) 
nan

>  <comRMSD>  (1270) 
4.609827

>  <N_unconstrained_atoms>  (1270) 
4.0

>  <∆∆G>  (1270) 
-12.168721

>  <runtime>  (1270) 
41.972484

>  <generation_date>  (1270) 
nan

$$$$
5CMS_0_N_γ-mArh-2fav_B_0_B_α
     RDKit          3D

 19 20  0  0  0  0  0  0  0  0999 V2000
    0.7780   12.6360   -3.9050 O   0  0  0  0  0  0  0  0  0  0  0  0
    0.1830   13.9350   -4.0510 C   0  0  1  0  0  0  0  0  0  0  0  0
    0.7490   14.9160   -3.0520 C   0  0  0  0  0  0  0  0  0  0  0  0
    0.6710   14.5080   -5.3530 C   0  0  1  0  0  0  0  0  0  0  0  0
   -0.0210   13.8290   -6.3790 O   0  0  0  0  0  0  0  0  0  0  0  0
    0.6530   16.2120   -3.6780 O   0  0  0  0  0  0  0  0  0  0  0  0
    0.6360   16.0640   -5.1190 C   0  0  2  0  0  0  0  0  0  0  0  0
   -0.3910   17.1250   -5.6310 C   0  0  0  0  0  0  0  0  0  0  0  0
   -0.0300   18.1030   -6.7940 C   0  0  0  0  0  0  0  0  0  0  0  0
   -0.4060   19.5770   -6.7200 C   0  0  0  0  0  0  0  0  0  0  0  0
   -1.4050   20.0620   -7.7750 C   0  0  0  0  0  0  0  0  0  0  0  0
   -1.5940   21.5920   -7.8370 C   0  0  0  0  0  0  0  0  0  0  0  0
   -3.0510   21.9760   -8.1460 C   0  0  1  0  0  0  0  0  0  0  0  0
   -3.8270   21.1200   -7.3000 O   0  0  0  0  0  0  0  0  0  0  0  0
   -3.5820   23.4200   -7.9110 C   0  0  1  0  0  0  0  0  0  0  0  0
   -4.0840   24.0180   -9.1190 O   0  0  0  0  0  0  0  0  0  0  0  0
   -4.5010   21.9270   -6.3410 C   0  0  0  0  0  0  0  0  0  0  0  0
   -4.8430   23.2020   -7.0680 C   0  0  1  0  0  0  0  0  0  0  0  0
   -5.1790   24.2550   -6.1630 O   0  0  0  0  0  0  0  0  0  0  0  0
  2  1  1  1
  2  3  1  0
  2  4  1  0
  4  5  1  6
  3  6  1  0
  4  7  1  0
  6  7  1  0
  7  8  1  1
  8  9  1  0
  9 10  1  0
 10 11  1  0
 11 12  1  0
 13 12  1  1
 13 14  1  0
 13 15  1  0
 15 16  1  6
 14 17  1  0
 15 18  1  0
 17 18  1  0
 18 19  1  1
M  END
>  <%Rank>  (1271) 
96.946565

>  <N_hits>  (1271) 
2

>  <submitter_name>  (1271) 
nan

>  <original SMILES>  (1271) 
nan

>  <∆G_unbound>  (1271) 
0.584981

>  <∆G_bound>  (1271) 
-11.088016

>  <regarded>  (1271) 
5CMS_0_N_γ,mArh-2fav_B_0_B_α

>  <ref_pdb>  (1271) 
nan

>  <smiles>  (1271) 
OC1COC(CCCCCC2OCC(O)C2O)C1O

>  <submitter_email>  (1271) 
nan

>  <disregarded>  (1271) 


>  <LE>  (1271) 
-0.614368

>  <submitter_institution>  (1271) 
nan

>  <ref_mols>  (1271) 
5CMS_0_N,mArh-2fav_B_0_B

>  <N_constrained_atoms>  (1271) 
16.0

>  <ref_url>  (1271) 
nan

>  <method>  (1271) 
nan

>  <comRMSD>  (1271) 
4.636991

>  <N_unconstrained_atoms>  (1271) 
3.0

>  <∆∆G>  (1271) 
-11.672997

>  <runtime>  (1271) 
33.066609

>  <generation_date>  (1271) 
nan

$$$$
mArh-5lw0_A_0_A_γ-mArh-5cms_E_5_E_α
     RDKit          3D

 21 22  0  0  0  0  0  0  0  0999 V2000
   -0.3850   12.0510   -3.7350 O   0  0  0  0  0  0  0  0  0  0  0  0
   -0.7050   13.4080   -3.9690 C   0  0  1  0  0  0  0  0  0  0  0  0
   -0.5850   14.2880   -2.7320 C   0  0  0  0  0  0  0  0  0  0  0  0
    0.2930   14.0700   -4.8980 C   0  0  2  0  0  0  0  0  0  0  0  0
    1.6140   13.6510   -4.5400 O   0  0  0  0  0  0  0  0  0  0  0  0
   -0.2330   15.6030   -3.2020 O   0  0  0  0  0  0  0  0  0  0  0  0
   -0.0700   15.5330   -4.6360 C   0  0  1  0  0  0  0  0  0  0  0  0
    0.9530   16.5800   -5.0570 C   0  0  0  0  0  0  0  0  0  0  0  0
    0.5240   17.8810   -5.7580 C   0  0  0  0  0  0  0  0  0  0  0  0
   -0.9760   18.2000   -5.9040 C   0  0  0  0  0  0  0  0  0  0  0  0
   -1.1730   19.6810   -6.2850 C   0  0  0  0  0  0  0  0  0  0  0  0
   -2.0530   20.0080   -7.4780 C   0  0  0  0  0  0  0  0  0  0  0  0
   -2.5390   21.4800   -7.5830 C   0  0  0  0  0  0  0  0  0  0  0  0
   -3.5700   21.7320   -8.7140 C   0  0  1  0  0  0  0  0  0  0  0  0
   -4.5580   22.6880   -8.3680 O   0  0  0  0  0  0  0  0  0  0  0  0
   -2.9430   22.2450   -9.9650 C   0  0  1  0  0  0  0  0  0  0  0  0
   -3.6100   22.0050  -11.2010 O   0  0  0  0  0  0  0  0  0  0  0  0
   -4.0750   23.9310   -8.7960 C   0  0  1  0  0  0  0  0  0  0  0  0
   -2.8840   23.7180   -9.6690 C   0  0  1  0  0  0  0  0  0  0  0  0
   -5.0340   24.6140   -9.5630 O   0  0  0  0  0  0  0  0  0  0  0  0
   -1.6670   24.1300   -9.0790 O   0  0  0  0  0  0  0  0  0  0  0  0
  2  1  1  1
  2  3  1  0
  2  4  1  0
  4  5  1  1
  3  6  1  0
  4  7  1  0
  6  7  1  0
  7  8  1  1
  8  9  1  0
  9 10  1  0
 10 11  1  0
 11 12  1  0
 12 13  1  0
 14 13  1  1
 14 15  1  0
 14 16  1  0
 16 17  1  6
 15 18  1  0
 16 19  1  0
 18 19  1  0
 18 20  1  6
 19 21  1  1
M  END
>  <%Rank>  (1272) 
97.022901

>  <N_hits>  (1272) 
2

>  <submitter_name>  (1272) 
nan

>  <original SMILES>  (1272) 
nan

>  <∆G_unbound>  (1272) 
1.407194

>  <∆G_bound>  (1272) 
-5.435615

>  <regarded>  (1272) 
mArh-5lw0_A_0_A_γ,mArh-5cms_E_5_E_α

>  <ref_pdb>  (1272) 
nan

>  <smiles>  (1272) 
OC1COC(CCCCCCC2OC(O)C(O)C2O)C1O

>  <submitter_email>  (1272) 
nan

>  <disregarded>  (1272) 


>  <LE>  (1272) 
-0.325848

>  <submitter_institution>  (1272) 
nan

>  <ref_mols>  (1272) 
mArh-5lw0_A_0_A,mArh-5cms_E_5_E

>  <N_constrained_atoms>  (1272) 
17.0

>  <ref_url>  (1272) 
nan

>  <method>  (1272) 
nan

>  <comRMSD>  (1272) 
4.500126

>  <N_unconstrained_atoms>  (1272) 
4.0

>  <∆∆G>  (1272) 
-6.842809

>  <runtime>  (1272) 
44.04451

>  <generation_date>  (1272) 
nan

$$$$
5CB5_0_A_γ-5CMS_0_F_α
     RDKit          3D

 21 22  0  0  0  0  0  0  0  0999 V2000
   -0.9500   12.4950   -4.1770 O   0  0  0  0  0  0  0  0  0  0  0  0
   -1.1110   13.8940   -4.2560 C   0  0  1  0  0  0  0  0  0  0  0  0
   -0.8500   14.6330   -2.9520 C   0  0  0  0  0  0  0  0  0  0  0  0
   -0.0560   14.5030   -5.1390 C   0  0  2  0  0  0  0  0  0  0  0  0
    1.2230   13.9670   -4.8070 O   0  0  0  0  0  0  0  0  0  0  0  0
   -0.2570   15.8950   -3.3300 O   0  0  0  0  0  0  0  0  0  0  0  0
   -0.2860   15.9590   -4.7710 C   0  0  1  0  0  0  0  0  0  0  0  0
    0.7370   16.9740   -5.2580 C   0  0  0  0  0  0  0  0  0  0  0  0
    0.2850   18.4220   -5.4710 C   0  0  0  0  0  0  0  0  0  0  0  0
   -0.5350   18.7610   -6.7370 C   0  0  0  0  0  0  0  0  0  0  0  0
    0.1340   19.8300   -7.6320 C   0  0  0  0  0  0  0  0  0  0  0  0
   -0.5930   21.1890   -7.7980 C   0  0  0  0  0  0  0  0  0  0  0  0
   -1.9620   21.0210   -8.4630 C   0  0  0  0  0  0  0  0  0  0  0  0
   -2.9730   22.1660   -8.3050 C   0  0  2  0  0  0  0  0  0  0  0  0
   -4.2030   21.8720   -9.0360 O   0  0  0  0  0  0  0  0  0  0  0  0
   -2.5280   23.5220   -8.7930 C   0  0  1  0  0  0  0  0  0  0  0  0
   -1.1160   23.5520   -8.8140 O   0  0  0  0  0  0  0  0  0  0  0  0
   -4.6480   23.1070   -9.6000 C   0  0  2  0  0  0  0  0  0  0  0  0
   -3.3680   23.5430  -10.0910 C   0  0  1  0  0  0  0  0  0  0  0  0
   -5.1300   24.0370   -8.6740 O   0  0  0  0  0  0  0  0  0  0  0  0
   -3.4150   24.7280  -10.9100 O   0  0  0  0  0  0  0  0  0  0  0  0
  2  1  1  1
  2  3  1  0
  2  4  1  0
  4  5  1  1
  3  6  1  0
  4  7  1  0
  6  7  1  0
  7  8  1  6
  8  9  1  0
  9 10  1  0
 10 11  1  0
 11 12  1  0
 12 13  1  0
 14 13  1  6
 14 15  1  0
 14 16  1  0
 16 17  1  6
 15 18  1  0
 16 19  1  0
 18 19  1  0
 18 20  1  1
 19 21  1  1
M  END
>  <%Rank>  (1273) 
97.099237

>  <N_hits>  (1273) 
2

>  <submitter_name>  (1273) 
nan

>  <original SMILES>  (1273) 
nan

>  <∆G_unbound>  (1273) 
1.407194

>  <∆G_bound>  (1273) 
-6.456233

>  <regarded>  (1273) 
5CB5_0_A_γ,5CMS_0_F_α

>  <ref_pdb>  (1273) 
nan

>  <smiles>  (1273) 
OC1COC(CCCCCCC2OC(O)C(O)C2O)C1O

>  <submitter_email>  (1273) 
nan

>  <disregarded>  (1273) 


>  <LE>  (1273) 
-0.374449

>  <submitter_institution>  (1273) 
nan

>  <ref_mols>  (1273) 
5CB5_0_A,5CMS_0_F

>  <N_constrained_atoms>  (1273) 
17.0

>  <ref_url>  (1273) 
nan

>  <method>  (1273) 
nan

>  <comRMSD>  (1273) 
4.574771

>  <N_unconstrained_atoms>  (1273) 
4.0

>  <∆∆G>  (1273) 
-7.863427

>  <runtime>  (1273) 
41.446531

>  <generation_date>  (1273) 
nan

$$$$
mArh-4iqy_B_0_B_γ-5CMS_0_C_α
     RDKit          3D

 21 22  0  0  0  0  0  0  0  0999 V2000
   -0.6080   12.3140   -3.7960 O   0  0  0  0  0  0  0  0  0  0  0  0
   -0.8950   13.6850   -3.9810 C   0  0  1  0  0  0  0  0  0  0  0  0
   -0.7310   14.5130   -2.7140 C   0  0  0  0  0  0  0  0  0  0  0  0
    0.1180   14.3270   -4.9060 C   0  0  2  0  0  0  0  0  0  0  0  0
    1.4210   13.8290   -4.5950 O   0  0  0  0  0  0  0  0  0  0  0  0
   -0.1980   15.7820   -3.1220 O   0  0  0  0  0  0  0  0  0  0  0  0
   -0.1400   15.7850   -4.5640 C   0  0  1  0  0  0  0  0  0  0  0  0
    0.9090   16.7940   -4.9920 C   0  0  0  0  0  0  0  0  0  0  0  0
    0.4440   18.2130   -5.3170 C   0  0  0  0  0  0  0  0  0  0  0  0
   -0.0940   18.3780   -6.7370 C   0  0  0  0  0  0  0  0  0  0  0  0
   -1.2010   19.4210   -6.8990 C   0  0  0  0  0  0  0  0  0  0  0  0
   -1.0390   20.3360   -8.1170 C   0  0  0  0  0  0  0  0  0  0  0  0
   -1.8220   21.6430   -7.9610 C   0  0  0  0  0  0  0  0  0  0  0  0
   -3.2300   21.7200   -8.6010 C   0  0  1  0  0  0  0  0  0  0  0  0
   -3.8850   22.6990   -7.8420 O   0  0  0  0  0  0  0  0  0  0  0  0
   -3.1650   22.3310   -9.9680 C   0  0  1  0  0  0  0  0  0  0  0  0
   -3.5000   21.7010  -11.1690 O   0  0  0  0  0  0  0  0  0  0  0  0
   -3.4750   23.8750   -8.4740 C   0  0  1  0  0  0  0  0  0  0  0  0
   -3.8790   23.6340   -9.8940 C   0  0  1  0  0  0  0  0  0  0  0  0
   -4.1900   24.9030   -7.8880 O   0  0  0  0  0  0  0  0  0  0  0  0
   -3.5090   24.5770  -10.9100 O   0  0  0  0  0  0  0  0  0  0  0  0
  2  1  1  1
  2  3  1  0
  2  4  1  0
  4  5  1  1
  3  6  1  0
  4  7  1  0
  6  7  1  0
  7  8  1  1
  8  9  1  0
  9 10  1  0
 10 11  1  0
 11 12  1  0
 12 13  1  0
 14 13  1  1
 14 15  1  0
 14 16  1  0
 16 17  1  6
 15 18  1  0
 16 19  1  0
 18 19  1  0
 18 20  1  1
 19 21  1  6
M  END
>  <%Rank>  (1274) 
97.175573

>  <N_hits>  (1274) 
2

>  <submitter_name>  (1274) 
nan

>  <original SMILES>  (1274) 
nan

>  <∆G_unbound>  (1274) 
1.407194

>  <∆G_bound>  (1274) 
-5.117742

>  <regarded>  (1274) 
mArh-4iqy_B_0_B_γ,5CMS_0_C_α

>  <ref_pdb>  (1274) 
nan

>  <smiles>  (1274) 
OC1COC(CCCCCCC2OC(O)C(O)C2O)C1O

>  <submitter_email>  (1274) 
nan

>  <disregarded>  (1274) 


>  <LE>  (1274) 
-0.310711

>  <submitter_institution>  (1274) 
nan

>  <ref_mols>  (1274) 
mArh-4iqy_B_0_B,5CMS_0_C

>  <N_constrained_atoms>  (1274) 
17.0

>  <ref_url>  (1274) 
nan

>  <method>  (1274) 
nan

>  <comRMSD>  (1274) 
4.550522

>  <N_unconstrained_atoms>  (1274) 
4.0

>  <∆∆G>  (1274) 
-6.524936

>  <runtime>  (1274) 
40.371265

>  <generation_date>  (1274) 
nan

$$$$
5CMS_0_M_γ-mArh-5cb5_Q_0_Q_α
     RDKit          3D

 21 22  0  0  0  0  0  0  0  0999 V2000
   -0.9200   12.2240   -4.4590 O   0  0  0  0  0  0  0  0  0  0  0  0
   -1.0720   13.6270   -4.3530 C   0  0  1  0  0  0  0  0  0  0  0  0
   -0.8750   14.1640   -2.9380 C   0  0  0  0  0  0  0  0  0  0  0  0
    0.0090   14.3870   -5.0890 C   0  0  2  0  0  0  0  0  0  0  0  0
    1.2780   13.8010   -4.7990 O   0  0  0  0  0  0  0  0  0  0  0  0
   -0.2880   15.4720   -3.0800 O   0  0  0  0  0  0  0  0  0  0  0  0
   -0.3160   15.7540   -4.4880 C   0  0  1  0  0  0  0  0  0  0  0  0
    0.5540   16.9740   -4.7660 C   0  0  0  0  0  0  0  0  0  0  0  0
    0.4210   17.5710   -6.1620 C   0  0  0  0  0  0  0  0  0  0  0  0
    0.1790   19.0580   -6.3120 C   0  0  0  0  0  0  0  0  0  0  0  0
   -0.6190   19.5000   -7.5630 C   0  0  0  0  0  0  0  0  0  0  0  0
   -1.8100   20.4530   -7.2820 C   0  0  0  0  0  0  0  0  0  0  0  0
   -1.8350   21.7420   -8.1450 C   0  0  0  0  0  0  0  0  0  0  0  0
   -3.2140   22.0910   -8.7600 C   0  0  1  0  0  0  0  0  0  0  0  0
   -4.1920   21.2160   -8.2170 O   0  0  0  0  0  0  0  0  0  0  0  0
   -3.7710   23.4940   -8.4780 C   0  0  1  0  0  0  0  0  0  0  0  0
   -4.6170   24.0110   -9.5010 O   0  0  0  0  0  0  0  0  0  0  0  0
   -5.1300   21.9410   -7.4140 C   0  0  2  0  0  0  0  0  0  0  0  0
   -4.5060   23.2850   -7.1610 C   0  0  2  0  0  0  0  0  0  0  0  0
   -5.3650   21.3210   -6.1500 O   0  0  0  0  0  0  0  0  0  0  0  0
   -5.5080   24.2570   -6.8760 O   0  0  0  0  0  0  0  0  0  0  0  0
  2  1  1  1
  2  3  1  0
  2  4  1  0
  4  5  1  1
  3  6  1  0
  4  7  1  0
  6  7  1  0
  7  8  1  1
  8  9  1  0
  9 10  1  0
 10 11  1  0
 11 12  1  0
 12 13  1  0
 14 13  1  1
 14 15  1  0
 14 16  1  0
 16 17  1  6
 15 18  1  0
 16 19  1  0
 18 19  1  0
 18 20  1  1
 19 21  1  6
M  END
>  <%Rank>  (1275) 
97.251908

>  <N_hits>  (1275) 
2

>  <submitter_name>  (1275) 
nan

>  <original SMILES>  (1275) 
nan

>  <∆G_unbound>  (1275) 
1.407194

>  <∆G_bound>  (1275) 
-10.697018

>  <regarded>  (1275) 
5CMS_0_M_γ,mArh-5cb5_Q_0_Q_α

>  <ref_pdb>  (1275) 
nan

>  <smiles>  (1275) 
OC1COC(CCCCCCC2OC(O)C(O)C2O)C1O

>  <submitter_email>  (1275) 
nan

>  <disregarded>  (1275) 


>  <LE>  (1275) 
-0.576391

>  <submitter_institution>  (1275) 
nan

>  <ref_mols>  (1275) 
5CMS_0_M,mArh-5cb5_Q_0_Q

>  <N_constrained_atoms>  (1275) 
17.0

>  <ref_url>  (1275) 
nan

>  <method>  (1275) 
nan

>  <comRMSD>  (1275) 
4.689955

>  <N_unconstrained_atoms>  (1275) 
4.0

>  <∆∆G>  (1275) 
-12.104212

>  <runtime>  (1275) 
37.158697

>  <generation_date>  (1275) 
nan

$$$$
5CB5_0_Q_γ-mArh-5cms_K_10_K_α
     RDKit          3D

 21 22  0  0  0  0  0  0  0  0999 V2000
   -0.6480   12.5410   -4.0210 O   0  0  0  0  0  0  0  0  0  0  0  0
   -0.8840   13.9080   -4.2730 C   0  0  1  0  0  0  0  0  0  0  0  0
   -0.6620   14.8000   -3.0700 C   0  0  0  0  0  0  0  0  0  0  0  0
    0.1270   14.4820   -5.2380 C   0  0  2  0  0  0  0  0  0  0  0  0
    1.4390   14.0290   -4.9170 O   0  0  0  0  0  0  0  0  0  0  0  0
   -0.3650   16.0980   -3.6030 O   0  0  0  0  0  0  0  0  0  0  0  0
   -0.1300   15.9670   -5.0170 C   0  0  1  0  0  0  0  0  0  0  0  0
    1.0230   16.8760   -5.3260 C   0  0  0  0  0  0  0  0  0  0  0  0
    0.7480   18.3540   -5.5010 C   0  0  0  0  0  0  0  0  0  0  0  0
   -0.4470   18.7040   -6.3880 C   0  0  0  0  0  0  0  0  0  0  0  0
   -0.1110   19.6680   -7.5390 C   0  0  0  0  0  0  0  0  0  0  0  0
   -1.3570   20.1460   -8.2690 C   0  0  0  0  0  0  0  0  0  0  0  0
   -1.5530   21.6460   -8.5100 C   0  0  0  0  0  0  0  0  0  0  0  0
   -2.9260   22.0430   -9.1210 C   0  0  2  0  0  0  0  0  0  0  0  0
   -3.1590   21.6080  -10.4780 O   0  0  0  0  0  0  0  0  0  0  0  0
   -3.0700   23.5490   -9.1550 C   0  0  1  0  0  0  0  0  0  0  0  0
   -1.8200   24.1850   -9.0500 O   0  0  0  0  0  0  0  0  0  0  0  0
   -4.0640   22.5470  -11.1010 C   0  0  2  0  0  0  0  0  0  0  0  0
   -3.8330   23.8970  -10.4360 C   0  0  1  0  0  0  0  0  0  0  0  0
   -5.4250   22.2380  -10.9390 O   0  0  0  0  0  0  0  0  0  0  0  0
   -5.0320   24.5810  -10.2020 O   0  0  0  0  0  0  0  0  0  0  0  0
  2  1  1  1
  2  3  1  0
  2  4  1  0
  4  5  1  1
  3  6  1  0
  4  7  1  0
  6  7  1  0
  7  8  1  1
  8  9  1  0
  9 10  1  0
 10 11  1  0
 11 12  1  0
 12 13  1  0
 14 13  1  6
 14 15  1  0
 14 16  1  0
 16 17  1  6
 15 18  1  0
 16 19  1  0
 18 19  1  0
 18 20  1  1
 19 21  1  1
M  END
>  <%Rank>  (1276) 
97.328244

>  <N_hits>  (1276) 
2

>  <submitter_name>  (1276) 
nan

>  <original SMILES>  (1276) 
nan

>  <∆G_unbound>  (1276) 
1.407194

>  <∆G_bound>  (1276) 
-6.964595

>  <regarded>  (1276) 
5CB5_0_Q_γ,mArh-5cms_K_10_K_α

>  <ref_pdb>  (1276) 
nan

>  <smiles>  (1276) 
OC1COC(CCCCCCC2OC(O)C(O)C2O)C1O

>  <submitter_email>  (1276) 
nan

>  <disregarded>  (1276) 


>  <LE>  (1276) 
-0.398657

>  <submitter_institution>  (1276) 
nan

>  <ref_mols>  (1276) 
5CB5_0_Q,mArh-5cms_K_10_K

>  <N_constrained_atoms>  (1276) 
17.0

>  <ref_url>  (1276) 
nan

>  <method>  (1276) 
nan

>  <comRMSD>  (1276) 
4.623236

>  <N_unconstrained_atoms>  (1276) 
4.0

>  <∆∆G>  (1276) 
-8.371789

>  <runtime>  (1276) 
33.593307

>  <generation_date>  (1276) 
nan

$$$$
5CB5_0_P_α-mArh-5cb5_E_0_E_γ
     RDKit          3D

 21 22  0  0  0  0  0  0  0  0999 V2000
   -2.2290   21.6450   -9.0550 C   0  0  0  0  0  0  0  0  0  0  0  0
   -3.3030   22.1030   -8.1290 C   0  0  2  0  0  0  0  0  0  0  0  0
   -4.4600   21.3470   -8.3590 O   0  0  0  0  0  0  0  0  0  0  0  0
   -3.8080   23.5400   -8.1370 C   0  0  1  0  0  0  0  0  0  0  0  0
   -4.1630   24.0550   -9.4150 O   0  0  0  0  0  0  0  0  0  0  0  0
   -5.2700   21.8070   -7.3070 C   0  0  2  0  0  0  0  0  0  0  0  0
   -5.1180   23.3460   -7.3860 C   0  0  1  0  0  0  0  0  0  0  0  0
   -4.8540   21.2270   -6.0410 O   0  0  0  0  0  0  0  0  0  0  0  0
   -5.1410   23.9890   -6.1130 O   0  0  0  0  0  0  0  0  0  0  0  0
   -3.4170   20.9880   -5.8410 C   0  0  0  0  0  0  0  0  0  0  0  0
   -2.7670   19.8250   -6.6580 C   0  0  0  0  0  0  0  0  0  0  0  0
   -1.3520   19.3060   -6.3120 C   0  0  0  0  0  0  0  0  0  0  0  0
   -1.2660   18.2830   -5.1530 C   0  0  0  0  0  0  0  0  0  0  0  0
   -0.1280   17.2190   -5.2810 C   0  0  0  0  0  0  0  0  0  0  0  0
   -0.5840   15.8850   -4.6430 C   0  0  2  0  0  0  0  0  0  0  0  0
   -0.2620   15.8430   -3.2460 O   0  0  0  0  0  0  0  0  0  0  0  0
   -0.0640   14.5100   -5.1200 C   0  0  1  0  0  0  0  0  0  0  0  0
    1.3410   14.4020   -5.2300 O   0  0  0  0  0  0  0  0  0  0  0  0
   -0.8400   14.5950   -2.8400 C   0  0  0  0  0  0  0  0  0  0  0  0
   -0.4990   13.6110   -3.9610 C   0  0  1  0  0  0  0  0  0  0  0  0
   -1.6060   12.8130   -4.3810 O   0  0  0  0  0  0  0  0  0  0  0  0
  2  1  1  6
  2  3  1  0
  2  4  1  0
  4  5  1  6
  3  6  1  0
  4  7  1  0
  6  7  1  0
  6  8  1  1
  7  9  1  1
  8 10  1  0
 10 11  1  0
 11 12  1  0
 12 13  1  0
 13 14  1  0
 15 14  1  6
 15 16  1  0
 15 17  1  0
 17 18  1  1
 16 19  1  0
 17 20  1  0
 19 20  1  0
 20 21  1  6
M  END
>  <%Rank>  (1277) 
97.40458

>  <N_hits>  (1277) 
2

>  <submitter_name>  (1277) 
nan

>  <original SMILES>  (1277) 
nan

>  <∆G_unbound>  (1277) 
1.488534

>  <∆G_bound>  (1277) 
-8.840346

>  <regarded>  (1277) 
5CB5_0_P_α,mArh-5cb5_E_0_E_γ

>  <ref_pdb>  (1277) 
nan

>  <smiles>  (1277) 
CC1OC(OCCCCCC2OCC(O)C2O)C(O)C1O

>  <submitter_email>  (1277) 
nan

>  <disregarded>  (1277) 


>  <LE>  (1277) 
-0.491851

>  <submitter_institution>  (1277) 
nan

>  <ref_mols>  (1277) 
5CB5_0_P,mArh-5cb5_E_0_E

>  <N_constrained_atoms>  (1277) 
17.0

>  <ref_url>  (1277) 
nan

>  <method>  (1277) 
nan

>  <comRMSD>  (1277) 
4.681449

>  <N_unconstrained_atoms>  (1277) 
4.0

>  <∆∆G>  (1277) 
-10.328881

>  <runtime>  (1277) 
42.43051

>  <generation_date>  (1277) 
nan

$$$$
mArh-4iqy_A_0_A_γ-mArh-5cms_H_7_H_α
     RDKit          3D

 21 22  0  0  0  0  0  0  0  0999 V2000
   -0.5720   12.2650   -3.7800 O   0  0  0  0  0  0  0  0  0  0  0  0
   -0.8550   13.6310   -3.9680 C   0  0  1  0  0  0  0  0  0  0  0  0
   -0.6980   14.4670   -2.7050 C   0  0  0  0  0  0  0  0  0  0  0  0
    0.1660   14.2680   -4.8840 C   0  0  2  0  0  0  0  0  0  0  0  0
    1.4710   13.8010   -4.5360 O   0  0  0  0  0  0  0  0  0  0  0  0
   -0.2020   15.7460   -3.1280 O   0  0  0  0  0  0  0  0  0  0  0  0
   -0.1310   15.7190   -4.5660 C   0  0  1  0  0  0  0  0  0  0  0  0
    0.8900   16.7430   -5.0050 C   0  0  0  0  0  0  0  0  0  0  0  0
    0.4150   18.1840   -5.0640 C   0  0  0  0  0  0  0  0  0  0  0  0
   -0.8420   18.4280   -5.9100 C   0  0  0  0  0  0  0  0  0  0  0  0
   -0.5230   19.2220   -7.1810 C   0  0  0  0  0  0  0  0  0  0  0  0
   -1.4460   20.4130   -7.4820 C   0  0  0  0  0  0  0  0  0  0  0  0
   -1.1790   20.9370   -8.8960 C   0  0  0  0  0  0  0  0  0  0  0  0
   -1.7220   22.3050   -9.2690 C   0  0  2  0  0  0  0  0  0  0  0  0
   -2.5570   22.1860  -10.4380 O   0  0  0  0  0  0  0  0  0  0  0  0
   -0.6110   23.2900   -9.6420 C   0  0  1  0  0  0  0  0  0  0  0  0
    0.5720   22.7630  -10.1970 O   0  0  0  0  0  0  0  0  0  0  0  0
   -2.5680   23.4780  -11.0380 C   0  0  2  0  0  0  0  0  0  0  0  0
   -1.2950   24.2270  -10.5830 C   0  0  2  0  0  0  0  0  0  0  0  0
   -3.7440   24.1740  -10.6580 O   0  0  0  0  0  0  0  0  0  0  0  0
   -0.4430   24.6650  -11.6070 O   0  0  0  0  0  0  0  0  0  0  0  0
  2  1  1  1
  2  3  1  0
  2  4  1  0
  4  5  1  1
  3  6  1  0
  4  7  1  0
  6  7  1  0
  7  8  1  1
  8  9  1  0
  9 10  1  0
 10 11  1  0
 11 12  1  0
 12 13  1  0
 14 13  1  6
 14 15  1  0
 14 16  1  0
 16 17  1  6
 15 18  1  0
 16 19  1  0
 18 19  1  0
 18 20  1  1
 19 21  1  6
M  END
>  <%Rank>  (1278) 
97.480916

>  <N_hits>  (1278) 
2

>  <submitter_name>  (1278) 
nan

>  <original SMILES>  (1278) 
nan

>  <∆G_unbound>  (1278) 
1.407194

>  <∆G_bound>  (1278) 
-7.883755

>  <regarded>  (1278) 
mArh-4iqy_A_0_A_γ,mArh-5cms_H_7_H_α

>  <ref_pdb>  (1278) 
nan

>  <smiles>  (1278) 
OC1COC(CCCCCCC2OC(O)C(O)C2O)C1O

>  <submitter_email>  (1278) 
nan

>  <disregarded>  (1278) 


>  <LE>  (1278) 
-0.442426

>  <submitter_institution>  (1278) 
nan

>  <ref_mols>  (1278) 
mArh-4iqy_A_0_A,mArh-5cms_H_7_H

>  <N_constrained_atoms>  (1278) 
17.0

>  <ref_url>  (1278) 
nan

>  <method>  (1278) 
nan

>  <comRMSD>  (1278) 
4.726806

>  <N_unconstrained_atoms>  (1278) 
4.0

>  <∆∆G>  (1278) 
-9.290949

>  <runtime>  (1278) 
39.467387

>  <generation_date>  (1278) 
nan

$$$$
5CB5_0_Q_γ-mArh-3vfq_B_0_A_α
     RDKit          3D

 21 22  0  0  0  0  0  0  0  0999 V2000
   -0.5980   12.6980   -4.0430 O   0  0  0  0  0  0  0  0  0  0  0  0
   -0.7970   14.0770   -4.2850 C   0  0  1  0  0  0  0  0  0  0  0  0
   -0.5410   14.9560   -3.0780 C   0  0  0  0  0  0  0  0  0  0  0  0
    0.2230   14.6550   -5.2410 C   0  0  2  0  0  0  0  0  0  0  0  0
    1.5340   14.2310   -4.8740 O   0  0  0  0  0  0  0  0  0  0  0  0
   -0.1730   16.2500   -3.5990 O   0  0  0  0  0  0  0  0  0  0  0  0
   -0.0920   16.1370   -5.0340 C   0  0  1  0  0  0  0  0  0  0  0  0
    0.9270   17.1580   -5.5250 C   0  0  0  0  0  0  0  0  0  0  0  0
    0.4910   18.3330   -6.4080 C   0  0  0  0  0  0  0  0  0  0  0  0
   -0.9610   18.3650   -6.8820 C   0  0  0  0  0  0  0  0  0  0  0  0
   -1.8060   19.3820   -6.1270 C   0  0  0  0  0  0  0  0  0  0  0  0
   -2.4360   20.4880   -6.9710 C   0  0  0  0  0  0  0  0  0  0  0  0
   -3.9710   20.4140   -6.9340 C   0  0  0  0  0  0  0  0  0  0  0  0
   -4.6500   21.1490   -8.0740 C   0  0  2  0  0  0  0  0  0  0  0  0
   -4.0920   22.4160   -8.3240 O   0  0  0  0  0  0  0  0  0  0  0  0
   -6.1140   21.3990   -7.9320 C   0  0  1  0  0  0  0  0  0  0  0  0
   -6.3600   21.7730   -6.6040 O   0  0  0  0  0  0  0  0  0  0  0  0
   -4.8840   22.7220   -9.4580 C   0  0  1  0  0  0  0  0  0  0  0  0
   -6.3250   22.4680   -9.0040 C   0  0  1  0  0  0  0  0  0  0  0  0
   -4.7180   24.0600   -9.8700 O   0  0  0  0  0  0  0  0  0  0  0  0
   -7.1850   22.0420  -10.0550 O   0  0  0  0  0  0  0  0  0  0  0  0
  2  1  1  1
  2  3  1  0
  2  4  1  0
  4  5  1  1
  3  6  1  0
  4  7  1  0
  6  7  1  0
  7  8  1  1
  8  9  1  0
  9 10  1  0
 10 11  1  0
 11 12  1  0
 12 13  1  0
 14 13  1  1
 14 15  1  0
 14 16  1  0
 16 17  1  1
 15 18  1  0
 16 19  1  0
 18 19  1  0
 18 20  1  1
 19 21  1  6
M  END
>  <%Rank>  (1279) 
97.557252

>  <N_hits>  (1279) 
2

>  <submitter_name>  (1279) 
nan

>  <original SMILES>  (1279) 
nan

>  <∆G_unbound>  (1279) 
1.407194

>  <∆G_bound>  (1279) 
-8.246466

>  <regarded>  (1279) 
5CB5_0_Q_γ,mArh-3vfq_B_0_A_α

>  <ref_pdb>  (1279) 
nan

>  <smiles>  (1279) 
OC1COC(CCCCCCC2OC(O)C(O)C2O)C1O

>  <submitter_email>  (1279) 
nan

>  <disregarded>  (1279) 


>  <LE>  (1279) 
-0.459698

>  <submitter_institution>  (1279) 
nan

>  <ref_mols>  (1279) 
5CB5_0_Q,mArh-3vfq_B_0_A

>  <N_constrained_atoms>  (1279) 
17.0

>  <ref_url>  (1279) 
nan

>  <method>  (1279) 
nan

>  <comRMSD>  (1279) 
4.735606

>  <N_unconstrained_atoms>  (1279) 
4.0

>  <∆∆G>  (1279) 
-9.65366

>  <runtime>  (1279) 
45.436195

>  <generation_date>  (1279) 
nan

$$$$
mArh-x0962_1_A_α-mArh-5cb5_Q_0_Q_α
     RDKit          3D

 22 23  0  0  0  0  0  0  0  0999 V2000
   -9.0220   13.2700   -1.3530 N   0  0  0  0  0  0  0  0  0  0  0  0
   -8.1290   14.3830   -1.0190 C   0  0  1  0  0  0  0  0  0  0  0  0
   -8.2840   15.5190   -2.0530 C   0  0  0  0  0  0  0  0  0  0  0  0
   -8.4050   14.7590    0.4020 C   0  0  0  0  0  0  0  0  0  0  0  0
   -8.1930   16.9380   -1.4710 C   0  0  0  0  0  0  0  0  0  0  0  0
   -7.5350   14.4010    1.4080 N   0  0  0  0  0  0  0  0  0  0  0  0
   -9.4090   15.4450    1.0640 C   0  0  0  0  0  0  0  0  0  0  0  0
   -8.8930   18.0400   -2.3260 C   0  0  0  0  0  0  0  0  0  0  0  0
   -8.0280   14.8710    2.5900 C   0  0  0  0  0  0  0  0  0  0  0  0
   -9.1660   15.5070    2.4160 N   0  0  0  0  0  0  0  0  0  0  0  0
   -8.2500   19.4810   -2.9050 C   0  0  0  0  0  0  0  0  0  0  0  0
   -6.6850   21.1560   -4.0900 C   0  0  0  0  0  0  0  0  0  0  0  0
   -6.0400   21.5990   -5.5550 C   0  0  0  0  0  0  0  0  0  0  0  0
   -4.7290   21.1410   -5.6240 O   0  0  0  0  0  0  0  0  0  0  0  0
   -4.2560   21.7270   -6.8230 C   0  0  2  0  0  0  0  0  0  0  0  0
   -2.9770   21.1960   -7.1110 O   0  0  0  0  0  0  0  0  0  0  0  0
   -4.0490   23.2320   -6.6580 C   0  0  2  0  0  0  0  0  0  0  0  0
   -5.2450   24.0230   -6.6590 O   0  0  0  0  0  0  0  0  0  0  0  0
   -2.4020   22.1290   -8.0320 C   0  0  1  0  0  0  0  0  0  0  0  0
   -3.1430   23.4780   -7.8590 C   0  0  1  0  0  0  0  0  0  0  0  0
   -0.9290   22.1830   -7.6690 C   0  0  0  0  0  0  0  0  0  0  0  0
   -3.9790   23.7930   -8.9940 O   0  0  0  0  0  0  0  0  0  0  0  0
  2  1  1  6
  2  3  1  0
  2  4  1  0
  3  5  1  0
  4  6  1  0
  4  7  2  0
  5  8  1  0
  6  9  1  0
  7 10  1  0
  9 10  2  0
  8 11  1  0
 11 12  1  0
 12 13  1  0
 13 14  1  0
 15 14  1  1
 15 16  1  0
 15 17  1  0
 17 18  1  6
 16 19  1  0
 17 20  1  0
 19 20  1  0
 19 21  1  1
 20 22  1  6
M  END
>  <%Rank>  (1280) 
97.633588

>  <N_hits>  (1280) 
2

>  <submitter_name>  (1280) 
nan

>  <original SMILES>  (1280) 
nan

>  <∆G_unbound>  (1280) 
1.528506

>  <∆G_bound>  (1280) 
87.425114

>  <regarded>  (1280) 
mArh-x0962_1_A_α,mArh-5cb5_Q_0_Q_α

>  <ref_pdb>  (1280) 
nan

>  <smiles>  (1280) 
CC1OC(OCCCCCCC(N)c2cnc[nH]2)C(O)C1O

>  <submitter_email>  (1280) 
nan

>  <disregarded>  (1280) 


>  <LE>  (1280) 
3.904391

>  <submitter_institution>  (1280) 
nan

>  <ref_mols>  (1280) 
mArh-x0962_1_A,mArh-5cb5_Q_0_Q

>  <N_constrained_atoms>  (1280) 
16.0

>  <ref_url>  (1280) 
nan

>  <method>  (1280) 
nan

>  <comRMSD>  (1280) 
2.474798

>  <N_unconstrained_atoms>  (1280) 
6.0

>  <∆∆G>  (1280) 
85.896608

>  <runtime>  (1280) 
103.095381

>  <generation_date>  (1280) 
nan

$$$$
5CMS_0_I_γ-mArh-5cms_R_17_R_α
     RDKit          3D

 21 22  0  0  0  0  0  0  0  0999 V2000
   -1.3450   12.3830   -4.6030 O   0  0  0  0  0  0  0  0  0  0  0  0
   -1.2340   13.7730   -4.4180 C   0  0  1  0  0  0  0  0  0  0  0  0
   -0.8810   14.2200   -3.0080 C   0  0  0  0  0  0  0  0  0  0  0  0
   -0.0530   14.3180   -5.1700 C   0  0  2  0  0  0  0  0  0  0  0  0
    1.1180   13.5480   -4.8950 O   0  0  0  0  0  0  0  0  0  0  0  0
   -0.1820   15.4700   -3.1620 O   0  0  0  0  0  0  0  0  0  0  0  0
   -0.1100   15.7130   -4.5820 C   0  0  1  0  0  0  0  0  0  0  0  0
    1.0530   16.6220   -4.8510 C   0  0  0  0  0  0  0  0  0  0  0  0
    0.7480   18.1050   -4.9150 C   0  0  0  0  0  0  0  0  0  0  0  0
    0.7350   18.6260   -6.3470 C   0  0  0  0  0  0  0  0  0  0  0  0
   -0.6650   19.0200   -6.8210 C   0  0  0  0  0  0  0  0  0  0  0  0
   -0.6770   20.0380   -7.9560 C   0  0  0  0  0  0  0  0  0  0  0  0
   -1.5400   21.2700   -7.6640 C   0  0  0  0  0  0  0  0  0  0  0  0
   -1.6900   22.1250   -8.8940 C   0  0  1  0  0  0  0  0  0  0  0  0
   -2.5390   21.4340   -9.8270 O   0  0  0  0  0  0  0  0  0  0  0  0
   -2.2380   23.5530   -8.7430 C   0  0  2  0  0  0  0  0  0  0  0  0
   -2.6110   23.9550   -7.4800 O   0  0  0  0  0  0  0  0  0  0  0  0
   -3.7470   22.1680   -9.8860 C   0  0  2  0  0  0  0  0  0  0  0  0
   -3.4470   23.6190   -9.6710 C   0  0  1  0  0  0  0  0  0  0  0  0
   -4.5760   21.7670   -8.8230 O   0  0  0  0  0  0  0  0  0  0  0  0
   -4.5750   24.2460   -9.1220 O   0  0  0  0  0  0  0  0  0  0  0  0
  2  1  1  1
  2  3  1  0
  2  4  1  0
  4  5  1  1
  3  6  1  0
  4  7  1  0
  6  7  1  0
  7  8  1  1
  8  9  1  0
  9 10  1  0
 10 11  1  0
 11 12  1  0
 12 13  1  0
 14 13  1  1
 14 15  1  0
 14 16  1  0
 16 17  1  1
 15 18  1  0
 16 19  1  0
 18 19  1  0
 18 20  1  1
 19 21  1  1
M  END
>  <%Rank>  (1281) 
97.709924

>  <N_hits>  (1281) 
2

>  <submitter_name>  (1281) 
nan

>  <original SMILES>  (1281) 
nan

>  <∆G_unbound>  (1281) 
1.407194

>  <∆G_bound>  (1281) 
-9.235503

>  <regarded>  (1281) 
5CMS_0_I_γ,mArh-5cms_R_17_R_α

>  <ref_pdb>  (1281) 
nan

>  <smiles>  (1281) 
OC1COC(CCCCCCC2OC(O)C(O)C2O)C1O

>  <submitter_email>  (1281) 
nan

>  <disregarded>  (1281) 


>  <LE>  (1281) 
-0.506795

>  <submitter_institution>  (1281) 
nan

>  <ref_mols>  (1281) 
5CMS_0_I,mArh-5cms_R_17_R

>  <N_constrained_atoms>  (1281) 
17.0

>  <ref_url>  (1281) 
nan

>  <method>  (1281) 
nan

>  <comRMSD>  (1281) 
4.809326

>  <N_unconstrained_atoms>  (1281) 
4.0

>  <∆∆G>  (1281) 
-10.642697

>  <runtime>  (1281) 
38.18074

>  <generation_date>  (1281) 
nan

$$$$
mArh-5cms_A_0_A_γ-mArh-5cms_R_17_R_α
     RDKit          3D

 21 22  0  0  0  0  0  0  0  0999 V2000
   -0.4240   11.9000   -3.7550 O   0  0  0  0  0  0  0  0  0  0  0  0
   -0.6800   13.2370   -4.1240 C   0  0  1  0  0  0  0  0  0  0  0  0
   -0.9720   14.1850   -2.9740 C   0  0  0  0  0  0  0  0  0  0  0  0
    0.5540   13.8990   -4.6720 C   0  0  1  0  0  0  0  0  0  0  0  0
    0.9790   13.2440   -5.8590 O   0  0  0  0  0  0  0  0  0  0  0  0
   -0.6250   15.4930   -3.4700 O   0  0  0  0  0  0  0  0  0  0  0  0
   -0.0090   15.3060   -4.7630 C   0  0  1  0  0  0  0  0  0  0  0  0
    0.9820   16.4270   -4.9720 C   0  0  0  0  0  0  0  0  0  0  0  0
    0.4440   17.8460   -4.9880 C   0  0  0  0  0  0  0  0  0  0  0  0
    0.7590   18.5310   -6.3140 C   0  0  0  0  0  0  0  0  0  0  0  0
   -0.4930   18.9450   -7.0880 C   0  0  0  0  0  0  0  0  0  0  0  0
   -0.3600   20.2040   -7.9350 C   0  0  0  0  0  0  0  0  0  0  0  0
   -1.5470   21.1460   -7.7480 C   0  0  0  0  0  0  0  0  0  0  0  0
   -1.7350   22.0660   -8.9300 C   0  0  1  0  0  0  0  0  0  0  0  0
   -2.6660   21.4760   -9.8520 O   0  0  0  0  0  0  0  0  0  0  0  0
   -2.2550   23.4630   -8.6190 C   0  0  1  0  0  0  0  0  0  0  0  0
   -1.3550   24.4910   -8.9000 O   0  0  0  0  0  0  0  0  0  0  0  0
   -3.8950   22.1460   -9.6220 C   0  0  2  0  0  0  0  0  0  0  0  0
   -3.5820   23.5850   -9.3710 C   0  0  2  0  0  0  0  0  0  0  0  0
   -4.5020   21.6600   -8.4540 O   0  0  0  0  0  0  0  0  0  0  0  0
   -3.6040   24.3470  -10.5770 O   0  0  0  0  0  0  0  0  0  0  0  0
  2  1  1  1
  2  3  1  0
  2  4  1  0
  4  5  1  6
  3  6  1  0
  4  7  1  0
  6  7  1  0
  7  8  1  1
  8  9  1  0
  9 10  1  0
 10 11  1  0
 11 12  1  0
 12 13  1  0
 14 13  1  1
 14 15  1  0
 14 16  1  0
 16 17  1  6
 15 18  1  0
 16 19  1  0
 18 19  1  0
 18 20  1  1
 19 21  1  6
M  END
>  <%Rank>  (1282) 
97.78626

>  <N_hits>  (1282) 
2

>  <submitter_name>  (1282) 
nan

>  <original SMILES>  (1282) 
nan

>  <∆G_unbound>  (1282) 
1.407194

>  <∆G_bound>  (1282) 
-7.843329

>  <regarded>  (1282) 
mArh-5cms_A_0_A_γ,mArh-5cms_R_17_R_α

>  <ref_pdb>  (1282) 
nan

>  <smiles>  (1282) 
OC1COC(CCCCCCC2OC(O)C(O)C2O)C1O

>  <submitter_email>  (1282) 
nan

>  <disregarded>  (1282) 


>  <LE>  (1282) 
-0.440501

>  <submitter_institution>  (1282) 
nan

>  <ref_mols>  (1282) 
mArh-5cms_A_0_A,mArh-5cms_R_17_R

>  <N_constrained_atoms>  (1282) 
17.0

>  <ref_url>  (1282) 
nan

>  <method>  (1282) 
nan

>  <comRMSD>  (1282) 
4.787632

>  <N_unconstrained_atoms>  (1282) 
4.0

>  <∆∆G>  (1282) 
-9.250523

>  <runtime>  (1282) 
39.954684

>  <generation_date>  (1282) 
nan

$$$$
mArh-5cms_C_2_C_γ-5CMS_0_F_α
     RDKit          3D

 21 22  0  0  0  0  0  0  0  0999 V2000
   -0.6690   12.1140   -4.0280 O   0  0  0  0  0  0  0  0  0  0  0  0
   -1.0640   13.4650   -4.1430 C   0  0  1  0  0  0  0  0  0  0  0  0
   -0.7720   14.2870   -2.8980 C   0  0  0  0  0  0  0  0  0  0  0  0
   -0.2360   14.1440   -5.2090 C   0  0  2  0  0  0  0  0  0  0  0  0
    1.0490   13.5270   -5.2320 O   0  0  0  0  0  0  0  0  0  0  0  0
   -0.2670   15.5600   -3.3260 O   0  0  0  0  0  0  0  0  0  0  0  0
   -0.3010   15.6090   -4.7670 C   0  0  1  0  0  0  0  0  0  0  0  0
    0.8310   16.5240   -5.2190 C   0  0  0  0  0  0  0  0  0  0  0  0
    0.5470   18.0130   -5.5010 C   0  0  0  0  0  0  0  0  0  0  0  0
   -0.7660   18.3610   -6.2330 C   0  0  0  0  0  0  0  0  0  0  0  0
   -0.5580   19.3410   -7.4090 C   0  0  0  0  0  0  0  0  0  0  0  0
   -1.5940   20.4840   -7.5020 C   0  0  0  0  0  0  0  0  0  0  0  0
   -1.5340   21.2740   -8.8280 C   0  0  0  0  0  0  0  0  0  0  0  0
   -2.8330   22.0190   -9.1890 C   0  0  2  0  0  0  0  0  0  0  0  0
   -3.2270   21.7460  -10.5400 O   0  0  0  0  0  0  0  0  0  0  0  0
   -2.7740   23.5430   -9.0980 C   0  0  1  0  0  0  0  0  0  0  0  0
   -1.4690   24.0700   -8.9920 O   0  0  0  0  0  0  0  0  0  0  0  0
   -4.1540   22.7630  -10.9010 C   0  0  2  0  0  0  0  0  0  0  0  0
   -3.7140   24.0340  -10.2490 C   0  0  2  0  0  0  0  0  0  0  0  0
   -5.4250   22.5200  -10.3660 O   0  0  0  0  0  0  0  0  0  0  0  0
   -3.2720   25.0240  -11.2040 O   0  0  0  0  0  0  0  0  0  0  0  0
  2  1  1  1
  2  3  1  0
  2  4  1  0
  4  5  1  1
  3  6  1  0
  4  7  1  0
  6  7  1  0
  7  8  1  6
  8  9  1  0
  9 10  1  0
 10 11  1  0
 11 12  1  0
 12 13  1  0
 14 13  1  6
 14 15  1  0
 14 16  1  0
 16 17  1  6
 15 18  1  0
 16 19  1  0
 18 19  1  0
 18 20  1  1
 19 21  1  6
M  END
>  <%Rank>  (1283) 
97.862595

>  <N_hits>  (1283) 
2

>  <submitter_name>  (1283) 
nan

>  <original SMILES>  (1283) 
nan

>  <∆G_unbound>  (1283) 
1.407194

>  <∆G_bound>  (1283) 
-5.914428

>  <regarded>  (1283) 
mArh-5cms_C_2_C_γ,5CMS_0_F_α

>  <ref_pdb>  (1283) 
nan

>  <smiles>  (1283) 
OC1COC(CCCCCCC2OC(O)C(O)C2O)C1O

>  <submitter_email>  (1283) 
nan

>  <disregarded>  (1283) 


>  <LE>  (1283) 
-0.348649

>  <submitter_institution>  (1283) 
nan

>  <ref_mols>  (1283) 
mArh-5cms_C_2_C,5CMS_0_F

>  <N_constrained_atoms>  (1283) 
17.0

>  <ref_url>  (1283) 
nan

>  <method>  (1283) 
nan

>  <comRMSD>  (1283) 
4.767638

>  <N_unconstrained_atoms>  (1283) 
4.0

>  <∆∆G>  (1283) 
-7.321622

>  <runtime>  (1283) 
33.679677

>  <generation_date>  (1283) 
nan

$$$$
5MQX_0_A_β-mArh-x0910_2_B_α
     RDKit          3D

 21 21  0  0  0  0  0  0  0  0999 V2000
   -1.3870   21.1170   -6.7810 O   0  0  0  0  0  0  0  0  0  0  0  0
   -2.5050   20.1740   -6.0360 P   0  0  0  0  0  0  0  0  0  0  0  0
   -2.0270   18.9120   -5.0910 O   0  0  0  0  0  0  0  0  0  0  0  0
   -4.0930   20.4330   -6.4410 O   0  0  0  0  0  0  0  0  0  0  0  0
   -2.7250   21.0070   -4.7760 O   0  0  0  0  0  0  0  0  0  0  0  0
   -1.7080   17.5520   -5.6520 P   0  0  0  0  0  0  0  0  0  0  0  0
   -4.4990   21.3740   -5.5550 C   0  0  0  0  0  0  0  0  0  0  0  0
   -0.0730   17.8350   -5.6830 O   0  0  0  0  0  0  0  0  0  0  0  0
   -2.4350   16.8460   -4.3770 O   0  0  0  0  0  0  0  0  0  0  0  0
   -2.6020   17.8670   -6.9830 O   0  0  0  0  0  0  0  0  0  0  0  0
   -5.9630   21.5740   -5.5260 C   0  0  0  0  0  0  0  0  0  0  0  0
   -6.7370   21.1480   -4.0750 C   0  0  0  0  0  0  0  0  0  0  0  0
   -8.2750   19.4100   -2.8540 C   0  0  0  0  0  0  0  0  0  0  0  0
   -9.8940   18.8150   -2.5690 C   0  0  0  0  0  0  0  0  0  0  0  0
  -11.1660   19.6170   -2.6700 C   0  0  0  0  0  0  0  0  0  0  0  0
  -11.5370   20.4870   -1.6110 N   0  0  0  0  0  0  0  0  0  0  0  0
  -12.4060   21.6150   -1.8670 C   0  0  0  0  0  0  0  0  0  0  0  0
  -12.0640   22.9120   -1.9230 N   0  0  0  0  0  0  0  0  0  0  0  0
  -13.7360   21.5570   -2.0970 N   0  0  0  0  0  0  0  0  0  0  0  0
  -13.1460   23.5920   -2.1750 N   0  0  0  0  0  0  0  0  0  0  0  0
  -14.2090   22.7770   -2.2890 C   0  0  0  0  0  0  0  0  0  0  0  0
  1  2  1  0
  2  3  1  0
  2  4  1  0
  2  5  1  0
  3  6  1  0
  4  7  1  0
  6  8  1  0
  6  9  1  0
  6 10  1  0
  7 11  1  0
 11 12  1  0
 12 13  1  0
 13 14  1  0
 14 15  1  0
 15 16  1  0
 16 17  1  0
 17 18  1  0
 17 19  2  0
 18 20  1  0
 19 21  1  0
 20 21  2  0
M  CHG  1   9  -1
M  END
>  <%Rank>  (1284) 
97.938931

>  <N_hits>  (1284) 
2

>  <submitter_name>  (1284) 
nan

>  <original SMILES>  (1284) 
nan

>  <∆G_unbound>  (1284) 
0.616122

>  <∆G_bound>  (1284) 
85.599276

>  <regarded>  (1284) 
5MQX_0_A_β,mArh-x0910_2_B_α

>  <ref_pdb>  (1284) 
nan

>  <smiles>  (1284) 
[O-][PH](O)(O)O[PH](O)(O)OCCCCCCNc1ncn[nH]1

>  <submitter_email>  (1284) 
nan

>  <disregarded>  (1284) 


>  <LE>  (1284) 
4.046817

>  <submitter_institution>  (1284) 
nan

>  <ref_mols>  (1284) 
5MQX_0_A,mArh-x0910_2_B

>  <N_constrained_atoms>  (1284) 
15.0

>  <ref_url>  (1284) 
nan

>  <method>  (1284) 
nan

>  <comRMSD>  (1284) 
2.45906

>  <N_unconstrained_atoms>  (1284) 
6.0

>  <∆∆G>  (1284) 
84.983154

>  <runtime>  (1284) 
103.973346

>  <generation_date>  (1284) 
nan

$$$$
6WOJ_0_C_γ-5CMS_0_R_α
     RDKit          3D

 21 22  0  0  0  0  0  0  0  0999 V2000
   -0.6980   12.1140   -4.5100 O   0  0  0  0  0  0  0  0  0  0  0  0
   -0.7630   13.5190   -4.3890 C   0  0  1  0  0  0  0  0  0  0  0  0
   -0.5300   14.0320   -2.9710 C   0  0  0  0  0  0  0  0  0  0  0  0
    0.3580   14.2100   -5.1240 C   0  0  2  0  0  0  0  0  0  0  0  0
    1.6080   13.5820   -4.8280 O   0  0  0  0  0  0  0  0  0  0  0  0
    0.0470   15.3410   -3.1110 O   0  0  0  0  0  0  0  0  0  0  0  0
    0.1190   15.5850   -4.5280 C   0  0  1  0  0  0  0  0  0  0  0  0
    1.1630   16.6190   -4.7850 C   0  0  0  0  0  0  0  0  0  0  0  0
    0.7110   18.0640   -4.8790 C   0  0  0  0  0  0  0  0  0  0  0  0
    0.7430   18.5940   -6.3130 C   0  0  0  0  0  0  0  0  0  0  0  0
   -0.6390   18.9880   -6.8340 C   0  0  0  0  0  0  0  0  0  0  0  0
   -0.6220   19.9760   -8.0040 C   0  0  0  0  0  0  0  0  0  0  0  0
   -1.4660   21.2290   -7.7320 C   0  0  0  0  0  0  0  0  0  0  0  0
   -1.6490   22.1020   -8.9540 C   0  0  1  0  0  0  0  0  0  0  0  0
   -2.5760   21.4770   -9.8570 O   0  0  0  0  0  0  0  0  0  0  0  0
   -2.1840   23.5100   -8.6880 C   0  0  1  0  0  0  0  0  0  0  0  0
   -1.3310   24.5350   -9.0740 O   0  0  0  0  0  0  0  0  0  0  0  0
   -3.8140   22.1330   -9.6400 C   0  0  2  0  0  0  0  0  0  0  0  0
   -3.5280   23.5800   -9.4060 C   0  0  2  0  0  0  0  0  0  0  0  0
   -4.4220   21.6500   -8.4710 O   0  0  0  0  0  0  0  0  0  0  0  0
   -3.5810   24.3300  -10.6200 O   0  0  0  0  0  0  0  0  0  0  0  0
  2  1  1  1
  2  3  1  0
  2  4  1  0
  4  5  1  1
  3  6  1  0
  4  7  1  0
  6  7  1  0
  7  8  1  1
  8  9  1  0
  9 10  1  0
 10 11  1  0
 11 12  1  0
 12 13  1  0
 14 13  1  1
 14 15  1  0
 14 16  1  0
 16 17  1  6
 15 18  1  0
 16 19  1  0
 18 19  1  0
 18 20  1  1
 19 21  1  6
M  END
>  <%Rank>  (1285) 
98.015267

>  <N_hits>  (1285) 
2

>  <submitter_name>  (1285) 
nan

>  <original SMILES>  (1285) 
nan

>  <∆G_unbound>  (1285) 
1.407194

>  <∆G_bound>  (1285) 
-8.282909

>  <regarded>  (1285) 
6WOJ_0_C_γ,5CMS_0_R_α

>  <ref_pdb>  (1285) 
nan

>  <smiles>  (1285) 
OC1COC(CCCCCCC2OC(O)C(O)C2O)C1O

>  <submitter_email>  (1285) 
nan

>  <disregarded>  (1285) 


>  <LE>  (1285) 
-0.461433

>  <submitter_institution>  (1285) 
nan

>  <ref_mols>  (1285) 
6WOJ_0_C,5CMS_0_R

>  <N_constrained_atoms>  (1285) 
17.0

>  <ref_url>  (1285) 
nan

>  <method>  (1285) 
nan

>  <comRMSD>  (1285) 
4.868238

>  <N_unconstrained_atoms>  (1285) 
4.0

>  <∆∆G>  (1285) 
-9.690103

>  <runtime>  (1285) 
40.917467

>  <generation_date>  (1285) 
nan

$$$$
mArh-5cb5_K_0_K_γ-mArh-5cms_H_7_H_α
     RDKit          3D

 21 22  0  0  0  0  0  0  0  0999 V2000
   -0.4960   12.2510   -3.9360 O   0  0  0  0  0  0  0  0  0  0  0  0
   -0.9260   13.5710   -4.2030 C   0  0  1  0  0  0  0  0  0  0  0  0
   -0.8550   14.4740   -2.9870 C   0  0  0  0  0  0  0  0  0  0  0  0
    0.0070   14.2490   -5.1840 C   0  0  2  0  0  0  0  0  0  0  0  0
    1.3330   13.7680   -5.0000 O   0  0  0  0  0  0  0  0  0  0  0  0
   -0.5430   15.7890   -3.4620 O   0  0  0  0  0  0  0  0  0  0  0  0
   -0.2260   15.7240   -4.8640 C   0  0  1  0  0  0  0  0  0  0  0  0
    0.9410   16.6600   -5.0880 C   0  0  0  0  0  0  0  0  0  0  0  0
    0.6210   18.1450   -5.1530 C   0  0  0  0  0  0  0  0  0  0  0  0
    0.7130   18.6970   -6.5740 C   0  0  0  0  0  0  0  0  0  0  0  0
   -0.5740   18.5530   -7.3680 C   0  0  0  0  0  0  0  0  0  0  0  0
   -1.4950   19.7570   -7.3760 C   0  0  0  0  0  0  0  0  0  0  0  0
   -1.3980   20.5660   -8.6740 C   0  0  0  0  0  0  0  0  0  0  0  0
   -2.3860   21.6870   -8.6520 C   0  0  2  0  0  0  0  0  0  0  0  0
   -2.9870   22.0830   -9.9160 O   0  0  0  0  0  0  0  0  0  0  0  0
   -1.5690   22.8100   -8.1560 C   0  0  1  0  0  0  0  0  0  0  0  0
   -0.2190   22.7750   -8.5620 O   0  0  0  0  0  0  0  0  0  0  0  0
   -3.2920   23.4720   -9.7060 C   0  0  2  0  0  0  0  0  0  0  0  0
   -2.2920   23.9690   -8.6490 C   0  0  2  0  0  0  0  0  0  0  0  0
   -4.6050   23.7140   -9.2630 O   0  0  0  0  0  0  0  0  0  0  0  0
   -1.2950   24.8040   -9.1280 O   0  0  0  0  0  0  0  0  0  0  0  0
  2  1  1  1
  2  3  1  0
  2  4  1  0
  4  5  1  1
  3  6  1  0
  4  7  1  0
  6  7  1  0
  7  8  1  1
  8  9  1  0
  9 10  1  0
 10 11  1  0
 11 12  1  0
 12 13  1  0
 14 13  1  6
 14 15  1  0
 14 16  1  0
 16 17  1  6
 15 18  1  0
 16 19  1  0
 18 19  1  0
 18 20  1  1
 19 21  1  6
M  END
>  <%Rank>  (1286) 
98.091603

>  <N_hits>  (1286) 
2

>  <submitter_name>  (1286) 
nan

>  <original SMILES>  (1286) 
nan

>  <∆G_unbound>  (1286) 
1.407194

>  <∆G_bound>  (1286) 
-6.065543

>  <regarded>  (1286) 
mArh-5cb5_K_0_K_γ,mArh-5cms_H_7_H_α

>  <ref_pdb>  (1286) 
nan

>  <smiles>  (1286) 
OC1COC(CCCCCCC2OC(O)C(O)C2O)C1O

>  <submitter_email>  (1286) 
nan

>  <disregarded>  (1286) 


>  <LE>  (1286) 
-0.355845

>  <submitter_institution>  (1286) 
nan

>  <ref_mols>  (1286) 
mArh-5cb5_K_0_K,mArh-5cms_H_7_H

>  <N_constrained_atoms>  (1286) 
17.0

>  <ref_url>  (1286) 
nan

>  <method>  (1286) 
nan

>  <comRMSD>  (1286) 
4.846038

>  <N_unconstrained_atoms>  (1286) 
4.0

>  <∆∆G>  (1286) 
-7.472737

>  <runtime>  (1286) 
33.896686

>  <generation_date>  (1286) 
nan

$$$$
5CMS_0_E_γ-mArh-5cms_A_0_A_α
     RDKit          3D

 21 22  0  0  0  0  0  0  0  0999 V2000
   -0.7790   11.9600   -4.3540 O   0  0  0  0  0  0  0  0  0  0  0  0
   -1.0180   13.3500   -4.2610 C   0  0  1  0  0  0  0  0  0  0  0  0
   -0.8340   13.8940   -2.8460 C   0  0  0  0  0  0  0  0  0  0  0  0
    0.0010   14.1500   -5.0350 C   0  0  2  0  0  0  0  0  0  0  0  0
    1.2820   13.5310   -4.9070 O   0  0  0  0  0  0  0  0  0  0  0  0
   -0.2450   15.1940   -2.9570 O   0  0  0  0  0  0  0  0  0  0  0  0
   -0.2120   15.5000   -4.3540 C   0  0  1  0  0  0  0  0  0  0  0  0
    0.7940   16.6050   -4.5480 C   0  0  0  0  0  0  0  0  0  0  0  0
    0.7370   17.2520   -5.9060 C   0  0  0  0  0  0  0  0  0  0  0  0
    0.5800   18.7530   -5.9640 C   0  0  0  0  0  0  0  0  0  0  0  0
    0.1490   19.2770   -7.3500 C   0  0  0  0  0  0  0  0  0  0  0  0
   -1.2000   20.0140   -7.4410 C   0  0  0  0  0  0  0  0  0  0  0  0
   -1.2510   20.9200   -8.6890 C   0  0  0  0  0  0  0  0  0  0  0  0
   -2.5400   21.7120   -8.8960 C   0  0  2  0  0  0  0  0  0  0  0  0
   -3.0490   21.4920  -10.2220 O   0  0  0  0  0  0  0  0  0  0  0  0
   -2.3000   23.2040   -8.8020 C   0  0  1  0  0  0  0  0  0  0  0  0
   -0.9460   23.5200   -9.0080 O   0  0  0  0  0  0  0  0  0  0  0  0
   -3.8840   22.5930  -10.5060 C   0  0  2  0  0  0  0  0  0  0  0  0
   -3.2820   23.7780   -9.8150 C   0  0  1  0  0  0  0  0  0  0  0  0
   -5.1650   22.4370   -9.9350 O   0  0  0  0  0  0  0  0  0  0  0  0
   -4.3440   24.4490   -9.2190 O   0  0  0  0  0  0  0  0  0  0  0  0
  2  1  1  1
  2  3  1  0
  2  4  1  0
  4  5  1  1
  3  6  1  0
  4  7  1  0
  6  7  1  0
  7  8  1  1
  8  9  1  0
  9 10  1  0
 10 11  1  0
 11 12  1  0
 12 13  1  0
 14 13  1  6
 14 15  1  0
 14 16  1  0
 16 17  1  6
 15 18  1  0
 16 19  1  0
 18 19  1  0
 18 20  1  1
 19 21  1  1
M  END
>  <%Rank>  (1287) 
98.167939

>  <N_hits>  (1287) 
2

>  <submitter_name>  (1287) 
nan

>  <original SMILES>  (1287) 
nan

>  <∆G_unbound>  (1287) 
1.407194

>  <∆G_bound>  (1287) 
-7.867202

>  <regarded>  (1287) 
5CMS_0_E_γ,mArh-5cms_A_0_A_α

>  <ref_pdb>  (1287) 
nan

>  <smiles>  (1287) 
OC1COC(CCCCCCC2OC(O)C(O)C2O)C1O

>  <submitter_email>  (1287) 
nan

>  <disregarded>  (1287) 


>  <LE>  (1287) 
-0.441638

>  <submitter_institution>  (1287) 
nan

>  <ref_mols>  (1287) 
5CMS_0_E,mArh-5cms_A_0_A

>  <N_constrained_atoms>  (1287) 
17.0

>  <ref_url>  (1287) 
nan

>  <method>  (1287) 
nan

>  <comRMSD>  (1287) 
4.906526

>  <N_unconstrained_atoms>  (1287) 
4.0

>  <∆∆G>  (1287) 
-9.274396

>  <runtime>  (1287) 
41.605009

>  <generation_date>  (1287) 
nan

$$$$
5CB5_0_L_γ-5CMS_0_H_α
     RDKit          3D

 21 22  0  0  0  0  0  0  0  0999 V2000
   -0.4570   12.2370   -3.8840 O   0  0  0  0  0  0  0  0  0  0  0  0
   -0.8440   13.5640   -4.1700 C   0  0  1  0  0  0  0  0  0  0  0  0
   -0.6600   14.4940   -2.9870 C   0  0  0  0  0  0  0  0  0  0  0  0
    0.0680   14.1750   -5.2100 C   0  0  2  0  0  0  0  0  0  0  0  0
    1.3850   13.6620   -5.0480 O   0  0  0  0  0  0  0  0  0  0  0  0
   -0.3960   15.7960   -3.5220 O   0  0  0  0  0  0  0  0  0  0  0  0
   -0.1060   15.6620   -4.9260 C   0  0  1  0  0  0  0  0  0  0  0  0
    1.1080   16.5150   -5.1910 C   0  0  0  0  0  0  0  0  0  0  0  0
    0.8840   17.9990   -5.3480 C   0  0  0  0  0  0  0  0  0  0  0  0
   -0.4740   18.2940   -5.9550 C   0  0  0  0  0  0  0  0  0  0  0  0
   -0.3800   19.0830   -7.2520 C   0  0  0  0  0  0  0  0  0  0  0  0
   -1.6310   19.9100   -7.4380 C   0  0  0  0  0  0  0  0  0  0  0  0
   -1.6020   20.8480   -8.6380 C   0  0  0  0  0  0  0  0  0  0  0  0
   -2.7390   21.8390   -8.5030 C   0  0  2  0  0  0  0  0  0  0  0  0
   -3.3840   22.0990   -9.8040 O   0  0  0  0  0  0  0  0  0  0  0  0
   -2.1550   23.1330   -7.9330 C   0  0  1  0  0  0  0  0  0  0  0  0
   -0.7700   23.0160   -7.5850 O   0  0  0  0  0  0  0  0  0  0  0  0
   -3.3950   23.5130   -9.8830 C   0  0  2  0  0  0  0  0  0  0  0  0
   -2.0700   23.7680   -9.1740 C   0  0  2  0  0  0  0  0  0  0  0  0
   -4.5130   24.0490   -9.2130 O   0  0  0  0  0  0  0  0  0  0  0  0
   -1.1220   22.8150   -9.4570 O   0  0  0  0  0  0  0  0  0  0  0  0
  2  1  1  1
  2  3  1  0
  2  4  1  0
  4  5  1  1
  3  6  1  0
  4  7  1  0
  6  7  1  0
  7  8  1  1
  8  9  1  0
  9 10  1  0
 10 11  1  0
 11 12  1  0
 12 13  1  0
 14 13  1  6
 14 15  1  0
 14 16  1  0
 16 17  1  6
 15 18  1  0
 16 19  1  0
 18 19  1  0
 18 20  1  1
 19 21  1  6
M  END
>  <%Rank>  (1288) 
98.244275

>  <N_hits>  (1288) 
2

>  <submitter_name>  (1288) 
nan

>  <original SMILES>  (1288) 
nan

>  <∆G_unbound>  (1288) 
1.407194

>  <∆G_bound>  (1288) 
-6.439094

>  <regarded>  (1288) 
5CB5_0_L_γ,5CMS_0_H_α

>  <ref_pdb>  (1288) 
nan

>  <smiles>  (1288) 
OC1COC(CCCCCCC2OC(O)C(O)C2O)C1O

>  <submitter_email>  (1288) 
nan

>  <disregarded>  (1288) 


>  <LE>  (1288) 
-0.373633

>  <submitter_institution>  (1288) 
nan

>  <ref_mols>  (1288) 
5CB5_0_L,5CMS_0_H

>  <N_constrained_atoms>  (1288) 
17.0

>  <ref_url>  (1288) 
nan

>  <method>  (1288) 
nan

>  <comRMSD>  (1288) 
4.926075

>  <N_unconstrained_atoms>  (1288) 
4.0

>  <∆∆G>  (1288) 
-7.846288

>  <runtime>  (1288) 
39.159381

>  <generation_date>  (1288) 
nan

$$$$
6WOJ_0_B_α-mArh-5cms_J_9_J_α
     RDKit          3D

 19 20  0  0  0  0  0  0  0  0999 V2000
   -1.9280   22.5130   -7.6790 C   0  0  0  0  0  0  0  0  0  0  0  0
   -3.3410   22.0130   -7.9370 C   0  0  1  0  0  0  0  0  0  0  0  0
   -3.8080   21.2730   -6.7940 O   0  0  0  0  0  0  0  0  0  0  0  0
   -4.4850   23.0150   -8.2240 C   0  0  2  0  0  0  0  0  0  0  0  0
   -4.2930   24.2160   -8.9230 O   0  0  0  0  0  0  0  0  0  0  0  0
   -5.1200   21.7770   -6.5420 C   0  0  2  0  0  0  0  0  0  0  0  0
   -5.0510   23.2550   -6.8620 C   0  0  1  0  0  0  0  0  0  0  0  0
   -5.5920   21.4470   -5.2680 O   0  0  0  0  0  0  0  0  0  0  0  0
   -4.2440   24.0650   -5.9840 O   0  0  0  0  0  0  0  0  0  0  0  0
   -4.8650   24.1820  -10.2330 C   0  0  0  0  0  0  0  0  0  0  0  0
   -3.7840   24.1290  -11.1120 O   0  0  0  0  0  0  0  0  0  0  0  0
   -2.6690   23.6270  -10.3840 C   0  0  1  0  0  0  0  0  0  0  0  0
   -2.4460   22.1700  -10.7350 C   0  0  2  0  0  0  0  0  0  0  0  0
   -1.3400   24.2910  -10.6880 C   0  0  2  0  0  0  0  0  0  0  0  0
   -1.3950   24.9300  -11.9650 O   0  0  0  0  0  0  0  0  0  0  0  0
   -3.0940   21.3620   -9.7970 O   0  0  0  0  0  0  0  0  0  0  0  0
   -0.3340   23.1450  -10.5610 C   0  0  2  0  0  0  0  0  0  0  0  0
   -1.0790   21.9040  -10.5760 O   0  0  0  0  0  0  0  0  0  0  0  0
    0.5330   23.1080   -9.3080 C   0  0  0  0  0  0  0  0  0  0  0  0
  2  1  1  1
  2  3  1  0
  2  4  1  0
  4  5  1  1
  3  6  1  0
  4  7  1  0
  6  7  1  0
  6  8  1  1
  7  9  1  1
  5 10  1  0
 10 11  1  0
 12 11  1  6
 12 13  1  0
 12 14  1  0
 14 15  1  6
 13 16  1  1
 14 17  1  0
 13 18  1  0
 17 18  1  0
 17 19  1  1
M  END
>  <%Rank>  (1289) 
98.320611

>  <N_hits>  (1289) 
2

>  <submitter_name>  (1289) 
nan

>  <original SMILES>  (1289) 
nan

>  <∆G_unbound>  (1289) 
0.399971

>  <∆G_bound>  (1289) 
-3.437662

>  <regarded>  (1289) 
6WOJ_0_B_α,mArh-5cms_J_9_J_α

>  <ref_pdb>  (1289) 
nan

>  <smiles>  (1289) 
CC1OC(O)C(OCOC2C(C)OC(O)C2O)C1O

>  <submitter_email>  (1289) 
nan

>  <disregarded>  (1289) 


>  <LE>  (1289) 
-0.201981

>  <submitter_institution>  (1289) 
nan

>  <ref_mols>  (1289) 
6WOJ_0_B,mArh-5cms_J_9_J

>  <N_constrained_atoms>  (1289) 
18.0

>  <ref_url>  (1289) 
nan

>  <method>  (1289) 
nan

>  <comRMSD>  (1289) 
5.14562

>  <N_unconstrained_atoms>  (1289) 
1.0

>  <∆∆G>  (1289) 
-3.837633

>  <runtime>  (1289) 
38.663432

>  <generation_date>  (1289) 
nan

$$$$
mArh-6woj_C_0_C_α-mArh-x0910_2_B_α
     RDKit          3D

 20 21  0  0  0  0  0  0  0  0999 V2000
   -2.6220   21.3820   -8.3900 C   0  0  0  0  0  0  0  0  0  0  0  0
   -3.0350   22.0860   -7.1330 C   0  0  2  0  0  0  0  0  0  0  0  0
   -4.0850   21.3820   -6.3730 O   0  0  0  0  0  0  0  0  0  0  0  0
   -3.5170   23.5310   -7.3980 C   0  0  1  0  0  0  0  0  0  0  0  0
   -4.1640   23.7440   -8.6610 O   0  0  0  0  0  0  0  0  0  0  0  0
   -5.1730   22.3010   -6.4500 C   0  0  2  0  0  0  0  0  0  0  0  0
   -4.4740   23.6280   -6.2440 C   0  0  2  0  0  0  0  0  0  0  0  0
   -6.3990   22.1360   -5.6780 O   0  0  0  0  0  0  0  0  0  0  0  0
   -5.4180   24.6910   -6.3440 O   0  0  0  0  0  0  0  0  0  0  0  0
   -6.7190   21.9270   -4.2350 C   0  0  0  0  0  0  0  0  0  0  0  0
   -8.1340   23.1100   -3.1160 C   0  0  0  0  0  0  0  0  0  0  0  0
  -10.2600   22.9350   -2.8380 C   0  0  0  0  0  0  0  0  0  0  0  0
  -11.0120   23.8150   -1.8040 C   0  0  0  0  0  0  0  0  0  0  0  0
  -12.5290   23.6680   -1.7770 C   0  0  0  0  0  0  0  0  0  0  0  0
  -12.9840   23.3490   -0.4380 N   0  0  0  0  0  0  0  0  0  0  0  0
  -14.2040   23.6130    0.0700 C   0  0  0  0  0  0  0  0  0  0  0  0
  -14.4390   24.4720    1.1070 N   0  0  0  0  0  0  0  0  0  0  0  0
  -15.3480   23.1080   -0.3270 N   0  0  0  0  0  0  0  0  0  0  0  0
  -15.7480   24.5400    1.4060 N   0  0  0  0  0  0  0  0  0  0  0  0
  -16.2580   23.6950    0.5050 C   0  0  0  0  0  0  0  0  0  0  0  0
  2  1  1  6
  2  3  1  0
  2  4  1  0
  4  5  1  6
  3  6  1  0
  4  7  1  0
  6  7  1  0
  6  8  1  1
  7  9  1  6
  8 10  1  0
 10 11  1  0
 11 12  1  0
 12 13  1  0
 13 14  1  0
 14 15  1  0
 15 16  1  0
 16 17  1  0
 16 18  2  0
 17 19  1  0
 18 20  1  0
 19 20  2  0
M  END
>  <%Rank>  (1290) 
98.396947

>  <N_hits>  (1290) 
2

>  <submitter_name>  (1290) 
nan

>  <original SMILES>  (1290) 
nan

>  <∆G_unbound>  (1290) 
0.415263

>  <∆G_bound>  (1290) 
101.051892

>  <regarded>  (1290) 
mArh-6woj_C_0_C_α,mArh-x0910_2_B_α

>  <ref_pdb>  (1290) 
nan

>  <smiles>  (1290) 
CC1OC(OCCCCCNc2ncn[nH]2)C(O)C1O

>  <submitter_email>  (1290) 
nan

>  <disregarded>  (1290) 


>  <LE>  (1290) 
5.031831

>  <submitter_institution>  (1290) 
nan

>  <ref_mols>  (1290) 
mArh-6woj_C_0_C,mArh-x0910_2_B

>  <N_constrained_atoms>  (1290) 
15.0

>  <ref_url>  (1290) 
nan

>  <method>  (1290) 
nan

>  <comRMSD>  (1290) 
2.36137

>  <N_unconstrained_atoms>  (1290) 
5.0

>  <∆∆G>  (1290) 
100.63663

>  <runtime>  (1290) 
145.408

>  <generation_date>  (1290) 
nan

$$$$
mArh-5cb5_H_0_H_α-mArh-3vfq_B_0_A_γ
     RDKit          3D

 21 22  0  0  0  0  0  0  0  0999 V2000
   -1.6190   21.5490   -8.3950 C   0  0  0  0  0  0  0  0  0  0  0  0
   -2.9690   21.9710   -7.9110 C   0  0  2  0  0  0  0  0  0  0  0  0
   -4.0550   21.1930   -8.3530 O   0  0  0  0  0  0  0  0  0  0  0  0
   -3.5510   23.3660   -8.0020 C   0  0  1  0  0  0  0  0  0  0  0  0
   -4.2520   23.7300   -9.2060 O   0  0  0  0  0  0  0  0  0  0  0  0
   -4.8270   21.4770   -7.2130 C   0  0  2  0  0  0  0  0  0  0  0  0
   -4.5650   23.0090   -6.9170 C   0  0  2  0  0  0  0  0  0  0  0  0
   -4.2590   20.6780   -6.1510 O   0  0  0  0  0  0  0  0  0  0  0  0
   -5.7540   23.8240   -7.0260 O   0  0  0  0  0  0  0  0  0  0  0  0
   -3.2060   19.7440   -6.5910 C   0  0  0  0  0  0  0  0  0  0  0  0
   -2.1110   19.3710   -5.5510 C   0  0  0  0  0  0  0  0  0  0  0  0
   -1.5540   17.8900   -5.4420 C   0  0  0  0  0  0  0  0  0  0  0  0
   -2.4910   16.6260   -5.4120 C   0  0  0  0  0  0  0  0  0  0  0  0
   -2.1070   15.5080   -4.3980 C   0  0  0  0  0  0  0  0  0  0  0  0
   -3.2970   14.9650   -3.5540 C   0  0  2  0  0  0  0  0  0  0  0  0
   -3.0390   15.0540   -2.1220 O   0  0  0  0  0  0  0  0  0  0  0  0
   -3.6890   13.4880   -3.7530 C   0  0  1  0  0  0  0  0  0  0  0  0
   -2.5880   12.5890   -3.6610 O   0  0  0  0  0  0  0  0  0  0  0  0
   -3.8580   14.0540   -1.4620 C   0  0  0  0  0  0  0  0  0  0  0  0
   -4.6130   13.2900   -2.5550 C   0  0  2  0  0  0  0  0  0  0  0  0
   -4.7180   11.8840   -2.2680 O   0  0  0  0  0  0  0  0  0  0  0  0
  2  1  1  6
  2  3  1  0
  2  4  1  0
  4  5  1  6
  3  6  1  0
  4  7  1  0
  6  7  1  0
  6  8  1  1
  7  9  1  6
  8 10  1  0
 10 11  1  0
 11 12  1  0
 12 13  1  0
 13 14  1  0
 15 14  1  6
 15 16  1  0
 15 17  1  0
 17 18  1  1
 16 19  1  0
 17 20  1  0
 19 20  1  0
 20 21  1  1
M  END
>  <%Rank>  (1291) 
98.473282

>  <N_hits>  (1291) 
2

>  <submitter_name>  (1291) 
nan

>  <original SMILES>  (1291) 
nan

>  <∆G_unbound>  (1291) 
1.488534

>  <∆G_bound>  (1291) 
-7.509709

>  <regarded>  (1291) 
mArh-5cb5_H_0_H_α,mArh-3vfq_B_0_A_γ

>  <ref_pdb>  (1291) 
nan

>  <smiles>  (1291) 
CC1OC(OCCCCCC2OCC(O)C2O)C(O)C1O

>  <submitter_email>  (1291) 
nan

>  <disregarded>  (1291) 


>  <LE>  (1291) 
-0.428488

>  <submitter_institution>  (1291) 
nan

>  <ref_mols>  (1291) 
mArh-5cb5_H_0_H,mArh-3vfq_B_0_A

>  <N_constrained_atoms>  (1291) 
17.0

>  <ref_url>  (1291) 
nan

>  <method>  (1291) 
nan

>  <comRMSD>  (1291) 
5.360212

>  <N_unconstrained_atoms>  (1291) 
4.0

>  <∆∆G>  (1291) 
-8.998243

>  <runtime>  (1291) 
35.219858

>  <generation_date>  (1291) 
nan

$$$$
3VFQ_0_A_γ-5CB5_0_J_α
     RDKit          3D

 21 22  0  0  0  0  0  0  0  0999 V2000
   -4.7110   11.8500   -1.9510 O   0  0  0  0  0  0  0  0  0  0  0  0
   -4.6210   13.2010   -2.3910 C   0  0  1  0  0  0  0  0  0  0  0  0
   -3.7340   14.0790   -1.5170 C   0  0  0  0  0  0  0  0  0  0  0  0
   -3.9170   13.3120   -3.7300 C   0  0  2  0  0  0  0  0  0  0  0  0
   -2.7880   12.4430   -3.7320 O   0  0  0  0  0  0  0  0  0  0  0  0
   -3.0650   15.0220   -2.3950 O   0  0  0  0  0  0  0  0  0  0  0  0
   -3.5980   14.8090   -3.7240 C   0  0  1  0  0  0  0  0  0  0  0  0
   -2.6580   15.3070   -4.8660 C   0  0  0  0  0  0  0  0  0  0  0  0
   -2.0720   16.7250   -4.7410 C   0  0  0  0  0  0  0  0  0  0  0  0
   -2.0870   17.6020   -6.0210 C   0  0  0  0  0  0  0  0  0  0  0  0
   -2.1580   19.1450   -5.8090 C   0  0  0  0  0  0  0  0  0  0  0  0
   -3.1720   19.8440   -6.7400 C   0  0  0  0  0  0  0  0  0  0  0  0
   -4.0610   20.8350   -6.1710 O   0  0  0  0  0  0  0  0  0  0  0  0
   -4.7750   21.5610   -7.1870 C   0  0  2  0  0  0  0  0  0  0  0  0
   -4.3580   21.1350   -8.4750 O   0  0  0  0  0  0  0  0  0  0  0  0
   -4.4740   23.0770   -7.0910 C   0  0  2  0  0  0  0  0  0  0  0  0
   -5.6940   23.8620   -7.0620 O   0  0  0  0  0  0  0  0  0  0  0  0
   -3.3260   22.0240   -8.9000 C   0  0  1  0  0  0  0  0  0  0  0  0
   -3.7490   23.3940   -8.4020 C   0  0  1  0  0  0  0  0  0  0  0  0
   -1.9580   21.6080   -8.3730 C   0  0  0  0  0  0  0  0  0  0  0  0
   -4.5880   24.0580   -9.3370 O   0  0  0  0  0  0  0  0  0  0  0  0
  2  1  1  1
  2  3  1  0
  2  4  1  0
  4  5  1  1
  3  6  1  0
  4  7  1  0
  6  7  1  0
  7  8  1  6
  8  9  1  0
  9 10  1  0
 10 11  1  0
 11 12  1  0
 12 13  1  0
 14 13  1  1
 14 15  1  0
 14 16  1  0
 16 17  1  6
 15 18  1  0
 16 19  1  0
 18 19  1  0
 18 20  1  1
 19 21  1  6
M  END
>  <%Rank>  (1292) 
98.549618

>  <N_hits>  (1292) 
2

>  <submitter_name>  (1292) 
nan

>  <original SMILES>  (1292) 
nan

>  <∆G_unbound>  (1292) 
0.095679

>  <∆G_bound>  (1292) 
-8.073497

>  <regarded>  (1292) 
3VFQ_0_A_γ,5CB5_0_J_α

>  <ref_pdb>  (1292) 
nan

>  <smiles>  (1292) 
CC1OC(OCCCCCC2OCC(O)C2O)C(O)C1O

>  <submitter_email>  (1292) 
nan

>  <disregarded>  (1292) 


>  <LE>  (1292) 
-0.389008

>  <submitter_institution>  (1292) 
nan

>  <ref_mols>  (1292) 
3VFQ_0_A,5CB5_0_J

>  <N_constrained_atoms>  (1292) 
17.0

>  <ref_url>  (1292) 
nan

>  <method>  (1292) 
nan

>  <comRMSD>  (1292) 
5.425328

>  <N_unconstrained_atoms>  (1292) 
4.0

>  <∆∆G>  (1292) 
-8.169176

>  <runtime>  (1292) 
44.448219

>  <generation_date>  (1292) 
nan

$$$$
mArh-3vfq_B_0_A_γ-5CB5_0_L_α
     RDKit          3D

 21 22  0  0  0  0  0  0  0  0999 V2000
   -4.7010   11.8430   -2.1990 O   0  0  0  0  0  0  0  0  0  0  0  0
   -4.5950   13.2300   -2.5010 C   0  0  1  0  0  0  0  0  0  0  0  0
   -3.8180   14.0210   -1.4610 C   0  0  0  0  0  0  0  0  0  0  0  0
   -3.7680   13.4860   -3.7510 C   0  0  2  0  0  0  0  0  0  0  0  0
   -2.6430   12.6090   -3.7490 O   0  0  0  0  0  0  0  0  0  0  0  0
   -3.1180   15.0770   -2.1610 O   0  0  0  0  0  0  0  0  0  0  0  0
   -3.4480   14.9740   -3.5660 C   0  0  1  0  0  0  0  0  0  0  0  0
   -2.3130   15.5730   -4.4420 C   0  0  0  0  0  0  0  0  0  0  0  0
   -2.7300   16.5690   -5.5570 C   0  0  0  0  0  0  0  0  0  0  0  0
   -2.0020   17.9660   -5.5410 C   0  0  0  0  0  0  0  0  0  0  0  0
   -2.5830   19.0610   -6.4960 C   0  0  0  0  0  0  0  0  0  0  0  0
   -2.9260   20.4810   -5.9040 C   0  0  0  0  0  0  0  0  0  0  0  0
   -4.2940   20.9880   -6.0960 O   0  0  0  0  0  0  0  0  0  0  0  0
   -4.6830   21.7050   -7.3090 C   0  0  2  0  0  0  0  0  0  0  0  0
   -4.1150   21.1290   -8.4630 O   0  0  0  0  0  0  0  0  0  0  0  0
   -4.3350   23.2140   -7.3420 C   0  0  2  0  0  0  0  0  0  0  0  0
   -5.5030   24.0030   -7.6810 O   0  0  0  0  0  0  0  0  0  0  0  0
   -3.0670   21.9500   -8.9160 C   0  0  1  0  0  0  0  0  0  0  0  0
   -3.4450   23.3740   -8.5590 C   0  0  1  0  0  0  0  0  0  0  0  0
   -1.7370   21.4980   -8.3340 C   0  0  0  0  0  0  0  0  0  0  0  0
   -4.1710   24.0210   -9.6040 O   0  0  0  0  0  0  0  0  0  0  0  0
  2  1  1  1
  2  3  1  0
  2  4  1  0
  4  5  1  1
  3  6  1  0
  4  7  1  0
  6  7  1  0
  7  8  1  6
  8  9  1  0
  9 10  1  0
 10 11  1  0
 11 12  1  0
 12 13  1  0
 14 13  1  1
 14 15  1  0
 14 16  1  0
 16 17  1  6
 15 18  1  0
 16 19  1  0
 18 19  1  0
 18 20  1  1
 19 21  1  6
M  END
>  <%Rank>  (1293) 
98.625954

>  <N_hits>  (1293) 
2

>  <submitter_name>  (1293) 
nan

>  <original SMILES>  (1293) 
nan

>  <∆G_unbound>  (1293) 
0.095679

>  <∆G_bound>  (1293) 
-7.874359

>  <regarded>  (1293) 
mArh-3vfq_B_0_A_γ,5CB5_0_L_α

>  <ref_pdb>  (1293) 
nan

>  <smiles>  (1293) 
CC1OC(OCCCCCC2OCC(O)C2O)C(O)C1O

>  <submitter_email>  (1293) 
nan

>  <disregarded>  (1293) 


>  <LE>  (1293) 
-0.379526

>  <submitter_institution>  (1293) 
nan

>  <ref_mols>  (1293) 
mArh-3vfq_B_0_A,5CB5_0_L

>  <N_constrained_atoms>  (1293) 
17.0

>  <ref_url>  (1293) 
nan

>  <method>  (1293) 
nan

>  <comRMSD>  (1293) 
5.45882

>  <N_unconstrained_atoms>  (1293) 
4.0

>  <∆∆G>  (1293) 
-7.970038

>  <runtime>  (1293) 
45.082899

>  <generation_date>  (1293) 
nan

$$$$
mArh-3vfq_B_0_A_γ-5CB5_0_A_α
     RDKit          3D

 21 22  0  0  0  0  0  0  0  0999 V2000
   -4.5740   12.0590   -2.1440 O   0  0  0  0  0  0  0  0  0  0  0  0
   -4.4750   13.4340   -2.5100 C   0  0  1  0  0  0  0  0  0  0  0  0
   -3.4990   14.2400   -1.6570 C   0  0  0  0  0  0  0  0  0  0  0  0
   -3.8620   13.6150   -3.8880 C   0  0  2  0  0  0  0  0  0  0  0  0
   -2.7650   12.7130   -4.0160 O   0  0  0  0  0  0  0  0  0  0  0  0
   -2.8020   15.1620   -2.5450 O   0  0  0  0  0  0  0  0  0  0  0  0
   -3.4990   15.1030   -3.8070 C   0  0  1  0  0  0  0  0  0  0  0  0
   -2.7440   15.7080   -5.0600 C   0  0  0  0  0  0  0  0  0  0  0  0
   -1.9860   17.0790   -5.0060 C   0  0  0  0  0  0  0  0  0  0  0  0
   -2.2500   18.0900   -6.1750 C   0  0  0  0  0  0  0  0  0  0  0  0
   -2.2430   19.6300   -5.8200 C   0  0  0  0  0  0  0  0  0  0  0  0
   -3.5960   20.3860   -6.0200 C   0  0  0  0  0  0  0  0  0  0  0  0
   -3.6420   21.7240   -6.4590 O   0  0  0  0  0  0  0  0  0  0  0  0
   -4.7560   21.9990   -7.2910 C   0  0  2  0  0  0  0  0  0  0  0  0
   -4.6160   21.2760   -8.4940 O   0  0  0  0  0  0  0  0  0  0  0  0
   -4.6480   23.4810   -7.6640 C   0  0  2  0  0  0  0  0  0  0  0  0
   -5.8660   24.0730   -8.1740 O   0  0  0  0  0  0  0  0  0  0  0  0
   -3.4920   21.9200   -9.0970 C   0  0  1  0  0  0  0  0  0  0  0  0
   -3.7100   23.4150   -8.8540 C   0  0  1  0  0  0  0  0  0  0  0  0
   -2.1860   21.4180   -8.4900 C   0  0  0  0  0  0  0  0  0  0  0  0
   -4.3320   24.0700   -9.9470 O   0  0  0  0  0  0  0  0  0  0  0  0
  2  1  1  1
  2  3  1  0
  2  4  1  0
  4  5  1  1
  3  6  1  0
  4  7  1  0
  6  7  1  0
  7  8  1  6
  8  9  1  0
  9 10  1  0
 10 11  1  0
 11 12  1  0
 12 13  1  0
 14 13  1  1
 14 15  1  0
 14 16  1  0
 16 17  1  6
 15 18  1  0
 16 19  1  0
 18 19  1  0
 18 20  1  1
 19 21  1  6
M  END
>  <%Rank>  (1294) 
98.70229

>  <N_hits>  (1294) 
2

>  <submitter_name>  (1294) 
nan

>  <original SMILES>  (1294) 
nan

>  <∆G_unbound>  (1294) 
0.095679

>  <∆G_bound>  (1294) 
-7.147149

>  <regarded>  (1294) 
mArh-3vfq_B_0_A_γ,5CB5_0_A_α

>  <ref_pdb>  (1294) 
nan

>  <smiles>  (1294) 
CC1OC(OCCCCCC2OCC(O)C2O)C(O)C1O

>  <submitter_email>  (1294) 
nan

>  <disregarded>  (1294) 


>  <LE>  (1294) 
-0.344897

>  <submitter_institution>  (1294) 
nan

>  <ref_mols>  (1294) 
mArh-3vfq_B_0_A,5CB5_0_A

>  <N_constrained_atoms>  (1294) 
17.0

>  <ref_url>  (1294) 
nan

>  <method>  (1294) 
nan

>  <comRMSD>  (1294) 
5.68948

>  <N_unconstrained_atoms>  (1294) 
4.0

>  <∆∆G>  (1294) 
-7.242828

>  <runtime>  (1294) 
50.698235

>  <generation_date>  (1294) 
nan

$$$$
mArh-2fav_B_0_B_α-5L9K_0_A_γ
     RDKit          3D

 20 21  0  0  0  0  0  0  0  0999 V2000
   -1.3340   22.1820   -7.8300 C   0  0  0  0  0  0  0  0  0  0  0  0
   -2.8090   22.0970   -8.2270 C   0  0  1  0  0  0  0  0  0  0  0  0
   -3.4200   21.0190   -7.4310 N   0  0  0  0  0  0  0  0  0  0  0  0
   -3.5920   23.3870   -7.9010 C   0  0  1  0  0  0  0  0  0  0  0  0
   -4.1680   23.9720   -9.0710 O   0  0  0  0  0  0  0  0  0  0  0  0
   -2.5030   19.8780   -7.1710 C   0  0  0  0  0  0  0  0  0  0  0  0
   -4.0930   21.6920   -6.3010 C   0  0  0  0  0  0  0  0  0  0  0  0
   -4.7120   22.9230   -6.9630 C   0  0  1  0  0  0  0  0  0  0  0  0
   -5.1200   23.9400   -6.0600 O   0  0  0  0  0  0  0  0  0  0  0  0
   -1.7210   19.8760   -5.8910 C   0  0  0  0  0  0  0  0  0  0  0  0
   -0.4570   19.0210   -6.1090 C   0  0  0  0  0  0  0  0  0  0  0  0
   -0.0620   18.1040   -4.9430 C   0  0  0  0  0  0  0  0  0  0  0  0
   -0.2870   16.6530   -5.3100 C   0  0  0  0  0  0  0  0  0  0  0  0
    0.1250   15.5370   -4.3560 C   0  0  1  0  0  0  0  0  0  0  0  0
   -0.5680   15.6540   -3.0950 O   0  0  0  0  0  0  0  0  0  0  0  0
   -0.3110   14.1820   -4.8940 C   0  0  1  0  0  0  0  0  0  0  0  0
    0.3100   13.0950   -4.2290 O   0  0  0  0  0  0  0  0  0  0  0  0
   -1.6770   14.7260   -3.1190 C   0  0  0  0  0  0  0  0  0  0  0  0
   -1.7860   14.2820   -4.5660 C   0  0  2  0  0  0  0  0  0  0  0  0
   -2.3880   12.9970   -4.7220 O   0  0  0  0  0  0  0  0  0  0  0  0
  2  1  1  1
  2  3  1  0
  2  4  1  0
  4  5  1  6
  3  6  1  0
  3  7  1  0
  4  8  1  0
  7  8  1  0
  8  9  1  1
  6 10  1  0
 10 11  1  0
 11 12  1  0
 12 13  1  0
 14 13  1  6
 14 15  1  0
 14 16  1  0
 16 17  1  1
 15 18  1  0
 16 19  1  0
 18 19  1  0
 19 20  1  1
M  END
>  <%Rank>  (1295) 
98.778626

>  <N_hits>  (1295) 
2

>  <submitter_name>  (1295) 
nan

>  <original SMILES>  (1295) 
nan

>  <∆G_unbound>  (1295) 
0.934262

>  <∆G_bound>  (1295) 
-10.463067

>  <regarded>  (1295) 
mArh-2fav_B_0_B_α,5L9K_0_A_γ

>  <ref_pdb>  (1295) 
nan

>  <smiles>  (1295) 
CC1C(O)C(O)CN1CCCCCC1OCC(O)C1O

>  <submitter_email>  (1295) 
nan

>  <disregarded>  (1295) 


>  <LE>  (1295) 
-0.569866

>  <submitter_institution>  (1295) 
nan

>  <ref_mols>  (1295) 
mArh-2fav_B_0_B,5L9K_0_A

>  <N_constrained_atoms>  (1295) 
16.0

>  <ref_url>  (1295) 
nan

>  <method>  (1295) 
nan

>  <comRMSD>  (1295) 
6.089678

>  <N_unconstrained_atoms>  (1295) 
4.0

>  <∆∆G>  (1295) 
-11.397329

>  <runtime>  (1295) 
36.627879

>  <generation_date>  (1295) 
nan

$$$$
mArh-5cb5_P_0_P_α-5CMS_0_M_γ
     RDKit          3D

 21 22  0  0  0  0  0  0  0  0999 V2000
   -4.2370   22.0890  -10.3220 C   0  0  0  0  0  0  0  0  0  0  0  0
   -3.7460   22.1220   -8.9170 C   0  0  2  0  0  0  0  0  0  0  0  0
   -4.6410   21.3430   -8.1270 O   0  0  0  0  0  0  0  0  0  0  0  0
   -3.7770   23.5480   -8.3880 C   0  0  1  0  0  0  0  0  0  0  0  0
   -4.5960   24.3120   -9.2670 O   0  0  0  0  0  0  0  0  0  0  0  0
   -4.5060   21.9090   -6.8390 C   0  0  2  0  0  0  0  0  0  0  0  0
   -4.4500   23.4310   -7.0290 C   0  0  2  0  0  0  0  0  0  0  0  0
   -3.2410   21.5820   -6.3020 O   0  0  0  0  0  0  0  0  0  0  0  0
   -5.7670   24.0270   -7.0530 O   0  0  0  0  0  0  0  0  0  0  0  0
   -3.0040   20.2130   -6.0390 C   0  0  0  0  0  0  0  0  0  0  0  0
   -1.6430   19.6530   -6.4850 C   0  0  0  0  0  0  0  0  0  0  0  0
   -1.1190   18.4780   -5.6260 C   0  0  0  0  0  0  0  0  0  0  0  0
    0.3090   18.0240   -5.9880 C   0  0  0  0  0  0  0  0  0  0  0  0
    0.8510   16.7800   -5.2290 C   0  0  0  0  0  0  0  0  0  0  0  0
   -0.1700   15.7200   -4.7870 C   0  0  2  0  0  0  0  0  0  0  0  0
   -0.2130   15.6810   -3.3430 O   0  0  0  0  0  0  0  0  0  0  0  0
    0.0820   14.2430   -5.1730 C   0  0  1  0  0  0  0  0  0  0  0  0
    1.4450   13.8440   -5.1240 O   0  0  0  0  0  0  0  0  0  0  0  0
   -1.0040   14.5280   -3.0320 C   0  0  0  0  0  0  0  0  0  0  0  0
   -0.6660   13.4720   -4.0830 C   0  0  1  0  0  0  0  0  0  0  0  0
   -1.8240   12.8510   -4.6520 O   0  0  0  0  0  0  0  0  0  0  0  0
  2  1  1  6
  2  3  1  0
  2  4  1  0
  4  5  1  6
  3  6  1  0
  4  7  1  0
  6  7  1  0
  6  8  1  6
  7  9  1  6
  8 10  1  0
 10 11  1  0
 11 12  1  0
 12 13  1  0
 13 14  1  0
 15 14  1  1
 15 16  1  0
 15 17  1  0
 17 18  1  1
 16 19  1  0
 17 20  1  0
 19 20  1  0
 20 21  1  6
M  END
>  <%Rank>  (1296) 
98.854962

>  <N_hits>  (1296) 
2

>  <submitter_name>  (1296) 
nan

>  <original SMILES>  (1296) 
nan

>  <∆G_unbound>  (1296) 
1.488534

>  <∆G_bound>  (1296) 
-9.231382

>  <regarded>  (1296) 
mArh-5cb5_P_0_P_α,5CMS_0_M_γ

>  <ref_pdb>  (1296) 
nan

>  <smiles>  (1296) 
CC1OC(OCCCCCC2OCC(O)C2O)C(O)C1O

>  <submitter_email>  (1296) 
nan

>  <disregarded>  (1296) 


>  <LE>  (1296) 
-0.510472

>  <submitter_institution>  (1296) 
nan

>  <ref_mols>  (1296) 
mArh-5cb5_P_0_P,5CMS_0_M

>  <N_constrained_atoms>  (1296) 
17.0

>  <ref_url>  (1296) 
nan

>  <method>  (1296) 
nan

>  <comRMSD>  (1296) 
6.10144

>  <N_unconstrained_atoms>  (1296) 
4.0

>  <∆∆G>  (1296) 
-10.719916

>  <runtime>  (1296) 
42.514057

>  <generation_date>  (1296) 
nan

$$$$
mArh-5mqx_0_A_α-mArh-6mea_A_0_A_α
     RDKit          3D

 21 22  0  0  0  0  0  0  0  0999 V2000
   -6.7850   18.0450   -7.9870 C   0  0  0  0  0  0  0  0  0  0  0  0
   -7.8710   17.0370   -8.1370 C   0  0  2  0  0  0  0  0  0  0  0  0
   -7.3050   15.9000   -8.7730 O   0  0  0  0  0  0  0  0  0  0  0  0
   -8.9720   17.6000   -9.0450 C   0  0  1  0  0  0  0  0  0  0  0  0
   -8.4030   18.6320   -9.8860 O   0  0  0  0  0  0  0  0  0  0  0  0
   -8.4090   15.2880   -9.3940 C   0  0  1  0  0  0  0  0  0  0  0  0
   -9.3170   16.4110   -9.9220 C   0  0  2  0  0  0  0  0  0  0  0  0
   -7.9330   14.5040  -10.4660 O   0  0  0  0  0  0  0  0  0  0  0  0
   -9.0170   16.7160  -11.2880 O   0  0  0  0  0  0  0  0  0  0  0  0
   -8.8880   19.9550   -9.6260 C   0  0  0  0  0  0  0  0  0  0  0  0
   -7.7150   20.8900   -9.3040 C   0  0  0  0  0  0  0  0  0  0  0  0
   -6.7660   20.3060   -8.2400 C   0  0  0  0  0  0  0  0  0  0  0  0
   -6.4930   21.2050   -7.1580 O   0  0  0  0  0  0  0  0  0  0  0  0
   -5.3490   21.9780   -7.5480 C   0  0  2  0  0  0  0  0  0  0  0  0
   -4.1580   21.3010   -7.1520 O   0  0  0  0  0  0  0  0  0  0  0  0
   -5.2330   23.2730   -6.7790 C   0  0  2  0  0  0  0  0  0  0  0  0
   -6.2350   24.2120   -7.0840 O   0  0  0  0  0  0  0  0  0  0  0  0
   -3.1940   22.3280   -6.8840 C   0  0  2  0  0  0  0  0  0  0  0  0
   -3.8620   23.6600   -7.2300 C   0  0  1  0  0  0  0  0  0  0  0  0
   -1.8680   22.0780   -7.5970 C   0  0  0  0  0  0  0  0  0  0  0  0
   -3.9030   23.9440   -8.6380 O   0  0  0  0  0  0  0  0  0  0  0  0
  2  1  1  6
  2  3  1  0
  2  4  1  0
  4  5  1  6
  3  6  1  0
  4  7  1  0
  6  7  1  0
  6  8  1  6
  7  9  1  6
  5 10  1  0
 10 11  1  0
 11 12  1  0
 12 13  1  0
 14 13  1  1
 14 15  1  0
 14 16  1  0
 16 17  1  6
 15 18  1  0
 16 19  1  0
 18 19  1  0
 18 20  1  6
 19 21  1  6
M  END
>  <%Rank>  (1297) 
98.931298

>  <N_hits>  (1297) 
2

>  <submitter_name>  (1297) 
nan

>  <original SMILES>  (1297) 
nan

>  <∆G_unbound>  (1297) 
0.390476

>  <∆G_bound>  (1297) 
-4.031685

>  <regarded>  (1297) 
mArh-5mqx_0_A_α,mArh-6mea_A_0_A_α

>  <ref_pdb>  (1297) 
nan

>  <smiles>  (1297) 
CC1OC(OCCCOC2C(C)OC(O)C2O)C(O)C1O

>  <submitter_email>  (1297) 
nan

>  <disregarded>  (1297) 


>  <LE>  (1297) 
-0.210579

>  <submitter_institution>  (1297) 
nan

>  <ref_mols>  (1297) 
mArh-5mqx_0_A,mArh-6mea_A_0_A

>  <N_constrained_atoms>  (1297) 
18.0

>  <ref_url>  (1297) 
nan

>  <method>  (1297) 
nan

>  <comRMSD>  (1297) 
6.27516

>  <N_unconstrained_atoms>  (1297) 
3.0

>  <∆∆G>  (1297) 
-4.422162

>  <runtime>  (1297) 
73.212328

>  <generation_date>  (1297) 
nan

$$$$
2FAV_0_B_α-mArh-5cms_D_3_D_β
     RDKit          3D

 20 21  0  0  0  0  0  0  0  0999 V2000
   -1.4450   22.0230   -7.8560 C   0  0  0  0  0  0  0  0  0  0  0  0
   -2.9250   21.9670   -8.2290 C   0  0  1  0  0  0  0  0  0  0  0  0
   -3.5960   20.9220   -7.3970 N   0  0  0  0  0  0  0  0  0  0  0  0
   -3.6330   23.3190   -7.9270 C   0  0  1  0  0  0  0  0  0  0  0  0
   -4.1690   23.9380   -9.1020 O   0  0  0  0  0  0  0  0  0  0  0  0
   -2.7050   19.7830   -7.0150 C   0  0  0  0  0  0  0  0  0  0  0  0
   -4.2220   21.6870   -6.2960 C   0  0  0  0  0  0  0  0  0  0  0  0
   -4.7750   22.9300   -6.9850 C   0  0  1  0  0  0  0  0  0  0  0  0
   -5.1350   23.9770   -6.0910 O   0  0  0  0  0  0  0  0  0  0  0  0
   -1.8070   19.9730   -5.7970 C   0  0  0  0  0  0  0  0  0  0  0  0
   -1.4110   18.6460   -5.1020 C   0  0  0  0  0  0  0  0  0  0  0  0
    0.0830   18.2620   -4.9980 C   0  0  0  0  0  0  0  0  0  0  0  0
    0.4270   16.8720   -5.5090 C   0  0  0  0  0  0  0  0  0  0  0  0
    0.7780   15.7440   -4.5260 C   0  0  1  0  0  0  0  0  0  0  0  0
    0.0560   15.8950   -3.2770 O   0  0  0  0  0  0  0  0  0  0  0  0
    0.4150   14.3570   -5.0870 C   0  0  1  0  0  0  0  0  0  0  0  0
    1.4130   13.3750   -4.8590 O   0  0  0  0  0  0  0  0  0  0  0  0
   -0.6360   14.6570   -3.0080 C   0  0  0  0  0  0  0  0  0  0  0  0
   -0.8730   14.0090   -4.3610 C   0  0  2  0  0  0  0  0  0  0  0  0
   -0.9430   12.5790   -4.2690 O   0  0  0  0  0  0  0  0  0  0  0  0
  2  1  1  1
  2  3  1  0
  2  4  1  0
  4  5  1  6
  3  6  1  0
  3  7  1  0
  4  8  1  0
  7  8  1  0
  8  9  1  1
  6 10  1  0
 10 11  1  0
 11 12  1  0
 12 13  1  0
 14 13  1  6
 14 15  1  0
 14 16  1  0
 16 17  1  1
 15 18  1  0
 16 19  1  0
 18 19  1  0
 19 20  1  1
M  END
>  <%Rank>  (1298) 
99.007634

>  <N_hits>  (1298) 
2

>  <submitter_name>  (1298) 
nan

>  <original SMILES>  (1298) 
nan

>  <∆G_unbound>  (1298) 
0.934262

>  <∆G_bound>  (1298) 
-11.297869

>  <regarded>  (1298) 
2FAV_0_B_α,mArh-5cms_D_3_D_β

>  <ref_pdb>  (1298) 
nan

>  <smiles>  (1298) 
CC1C(O)C(O)CN1CCCCCC1OCC(O)C1O

>  <submitter_email>  (1298) 
nan

>  <disregarded>  (1298) 


>  <LE>  (1298) 
-0.611607

>  <submitter_institution>  (1298) 
nan

>  <ref_mols>  (1298) 
2FAV_0_B,mArh-5cms_D_3_D

>  <N_constrained_atoms>  (1298) 
16.0

>  <ref_url>  (1298) 
nan

>  <method>  (1298) 
nan

>  <comRMSD>  (1298) 
6.484965

>  <N_unconstrained_atoms>  (1298) 
4.0

>  <∆∆G>  (1298) 
-12.232131

>  <runtime>  (1298) 
37.01932

>  <generation_date>  (1298) 
nan

$$$$
5CMS_0_R_γ-mArh-x0631_0_A_β
     RDKit          3D

 17 18  0  0  0  0  0  0  0  0999 V2000
    0.3710   12.1460   -3.8580 O   0  0  0  0  0  0  0  0  0  0  0  0
   -0.3490   13.3640   -4.0290 C   0  0  1  0  0  0  0  0  0  0  0  0
    0.0380   14.3380   -2.9200 C   0  0  0  0  0  0  0  0  0  0  0  0
    0.0020   14.0740   -5.3400 C   0  0  2  0  0  0  0  0  0  0  0  0
    1.1350   13.4840   -6.0180 O   0  0  0  0  0  0  0  0  0  0  0  0
    0.4760   15.5650   -3.5090 O   0  0  0  0  0  0  0  0  0  0  0  0
    0.0190   15.5640   -4.8610 C   0  0  1  0  0  0  0  0  0  0  0  0
    0.7990   16.6570   -5.5830 C   0  0  0  0  0  0  0  0  0  0  0  0
    1.2000   12.0170   -6.1740 C   0  0  0  0  0  0  0  0  0  0  0  0
    0.4090   11.3100   -7.2600 N   0  0  0  0  0  0  0  0  0  0  0  0
    0.5310    9.8610   -7.1630 N   0  0  0  0  0  0  0  0  0  0  0  0
    1.0850   11.4990   -8.5190 N   0  0  0  0  0  0  0  0  0  0  0  0
   -0.5270    9.2580   -6.3210 C   0  0  0  0  0  0  0  0  0  0  0  0
    0.6420   10.4370   -9.3850 C   0  0  0  0  0  0  0  0  0  0  0  0
    0.5870    9.2900   -8.5060 N   0  0  0  0  0  0  0  0  0  0  0  0
   -1.4050    8.2930   -7.1250 C   0  0  0  0  0  0  0  0  0  0  0  0
   -2.5500    9.0470   -7.7740 C   0  0  0  0  0  0  0  0  0  0  0  0
  2  1  1  1
  2  3  1  0
  2  4  1  0
  4  5  1  1
  3  6  1  0
  4  7  1  0
  6  7  1  0
  7  8  1  6
  5  9  1  0
  9 10  1  0
 10 11  1  0
 10 12  1  0
 11 13  1  0
 12 14  1  0
 11 15  1  0
 14 15  1  0
 13 16  1  0
 16 17  1  0
M  END
>  <%Rank>  (1299) 
99.083969

>  <N_hits>  (1299) 
2

>  <submitter_name>  (1299) 
nan

>  <original SMILES>  (1299) 
nan

>  <∆G_unbound>  (1299) 
0.209055

>  <∆G_bound>  (1299) 
-2.195755

>  <regarded>  (1299) 
5CMS_0_R_γ,mArh-x0631_0_A_β

>  <ref_pdb>  (1299) 
nan

>  <smiles>  (1299) 
CCCN1NCNN1COC1C(O)COC1C

>  <submitter_email>  (1299) 
nan

>  <disregarded>  (1299) 


>  <LE>  (1299) 
-0.141459

>  <submitter_institution>  (1299) 
nan

>  <ref_mols>  (1299) 
5CMS_0_R,mArh-x0631_0_A

>  <N_constrained_atoms>  (1299) 
16.0

>  <ref_url>  (1299) 
nan

>  <method>  (1299) 
nan

>  <comRMSD>  (1299) 
6.364096

>  <N_unconstrained_atoms>  (1299) 
1.0

>  <∆∆G>  (1299) 
-2.404809

>  <runtime>  (1299) 
33.117507

>  <generation_date>  (1299) 
nan

$$$$
3Q6Z_0_A_α-mArh-5cb5_N_0_N_γ
     RDKit          3D

 21 22  0  0  0  0  0  0  0  0999 V2000
   -2.1700   21.6510   -8.8390 C   0  0  0  0  0  0  0  0  0  0  0  0
   -2.8210   22.1500   -7.6010 C   0  0  1  0  0  0  0  0  0  0  0  0
   -3.6320   23.4550   -7.6860 C   0  0  1  0  0  0  0  0  0  0  0  0
   -3.7290   21.1010   -7.2020 N   0  0  0  0  0  0  0  0  0  0  0  0
   -4.4700   23.6140   -8.8510 O   0  0  0  0  0  0  0  0  0  0  0  0
   -3.0170   20.1210   -6.3780 C   0  0  0  0  0  0  0  0  0  0  0  0
   -4.4880   23.2580   -6.4540 C   0  0  2  0  0  0  0  0  0  0  0  0
   -4.8530   21.7630   -6.5330 C   0  0  1  0  0  0  0  0  0  0  0  0
   -5.6490   24.0880   -6.4820 O   0  0  0  0  0  0  0  0  0  0  0  0
   -6.0210   21.6090   -7.3260 O   0  0  0  0  0  0  0  0  0  0  0  0
   -1.5580   19.9090   -6.7640 C   0  0  0  0  0  0  0  0  0  0  0  0
   -1.1430   18.4360   -6.7120 C   0  0  0  0  0  0  0  0  0  0  0  0
   -0.7660   17.9420   -5.3220 C   0  0  0  0  0  0  0  0  0  0  0  0
    0.6150   17.2890   -5.2490 C   0  0  0  0  0  0  0  0  0  0  0  0
    0.7540   15.9930   -4.4350 C   0  0  1  0  0  0  0  0  0  0  0  0
    0.0930   16.0900   -3.1610 O   0  0  0  0  0  0  0  0  0  0  0  0
    0.3380   14.6510   -5.0530 C   0  0  1  0  0  0  0  0  0  0  0  0
    1.3280   13.6340   -5.0980 O   0  0  0  0  0  0  0  0  0  0  0  0
   -0.5170   14.8210   -2.8690 C   0  0  0  0  0  0  0  0  0  0  0  0
   -0.8390   14.2010   -4.2080 C   0  0  2  0  0  0  0  0  0  0  0  0
   -0.9210   12.7840   -4.1530 O   0  0  0  0  0  0  0  0  0  0  0  0
  2  1  1  6
  2  3  1  0
  2  4  1  0
  3  5  1  6
  4  6  1  0
  3  7  1  0
  4  8  1  0
  7  8  1  0
  7  9  1  6
  8 10  1  6
  6 11  1  0
 11 12  1  0
 12 13  1  0
 13 14  1  0
 15 14  1  6
 15 16  1  0
 15 17  1  0
 17 18  1  1
 16 19  1  0
 17 20  1  0
 19 20  1  0
 20 21  1  1
M  END
>  <%Rank>  (1300) 
99.160305

>  <N_hits>  (1300) 
2

>  <submitter_name>  (1300) 
nan

>  <original SMILES>  (1300) 
nan

>  <∆G_unbound>  (1300) 
1.128256

>  <∆G_bound>  (1300) 
-10.592856

>  <regarded>  (1300) 
3Q6Z_0_A_α,mArh-5cb5_N_0_N_γ

>  <ref_pdb>  (1300) 
nan

>  <smiles>  (1300) 
CC1C(O)C(O)C(O)N1CCCCCC1OCC(O)C1O

>  <submitter_email>  (1300) 
nan

>  <disregarded>  (1300) 


>  <LE>  (1300) 
-0.558148

>  <submitter_institution>  (1300) 
nan

>  <ref_mols>  (1300) 
3Q6Z_0_A,mArh-5cb5_N_0_N

>  <N_constrained_atoms>  (1300) 
17.0

>  <ref_url>  (1300) 
nan

>  <method>  (1300) 
nan

>  <comRMSD>  (1300) 
6.774587

>  <N_unconstrained_atoms>  (1300) 
4.0

>  <∆∆G>  (1300) 
-11.721112

>  <runtime>  (1300) 
35.974852

>  <generation_date>  (1300) 
nan

$$$$
mArh-2fav_B_0_B_α-mArh-5cms_I_8_I_γ
     RDKit          3D

 20 21  0  0  0  0  0  0  0  0999 V2000
   -1.4980   22.1100   -7.7860 C   0  0  0  0  0  0  0  0  0  0  0  0
   -3.0020   22.0540   -8.0660 C   0  0  1  0  0  0  0  0  0  0  0  0
   -3.6260   21.1170   -7.0870 N   0  0  0  0  0  0  0  0  0  0  0  0
   -3.6870   23.4360   -7.9030 C   0  0  1  0  0  0  0  0  0  0  0  0
   -4.1060   23.9830   -9.1550 O   0  0  0  0  0  0  0  0  0  0  0  0
   -2.6610   20.5190   -6.1380 C   0  0  0  0  0  0  0  0  0  0  0  0
   -4.6170   21.8920   -6.3200 C   0  0  0  0  0  0  0  0  0  0  0  0
   -4.9390   23.1760   -7.0710 C   0  0  1  0  0  0  0  0  0  0  0  0
   -5.2660   24.2310   -6.1650 O   0  0  0  0  0  0  0  0  0  0  0  0
   -2.2320   19.1010   -6.5300 C   0  0  0  0  0  0  0  0  0  0  0  0
   -1.6510   18.3170   -5.3430 C   0  0  0  0  0  0  0  0  0  0  0  0
   -0.6370   17.2560   -5.7480 C   0  0  0  0  0  0  0  0  0  0  0  0
    0.6150   17.1040   -4.9050 C   0  0  0  0  0  0  0  0  0  0  0  0
    0.8610   15.7030   -4.3130 C   0  0  1  0  0  0  0  0  0  0  0  0
    0.2750   15.6580   -2.9870 O   0  0  0  0  0  0  0  0  0  0  0  0
    0.2630   14.5270   -5.0900 C   0  0  1  0  0  0  0  0  0  0  0  0
    1.0620   13.3540   -5.0300 O   0  0  0  0  0  0  0  0  0  0  0  0
   -0.6920   14.5870   -2.9600 C   0  0  0  0  0  0  0  0  0  0  0  0
   -1.0810   14.3320   -4.4040 C   0  0  2  0  0  0  0  0  0  0  0  0
   -1.5170   12.9790   -4.6110 O   0  0  0  0  0  0  0  0  0  0  0  0
  2  1  1  1
  2  3  1  0
  2  4  1  0
  4  5  1  6
  3  6  1  0
  3  7  1  0
  4  8  1  0
  7  8  1  0
  8  9  1  1
  6 10  1  0
 10 11  1  0
 11 12  1  0
 12 13  1  0
 14 13  1  6
 14 15  1  0
 14 16  1  0
 16 17  1  1
 15 18  1  0
 16 19  1  0
 18 19  1  0
 19 20  1  1
M  END
>  <%Rank>  (1301) 
99.236641

>  <N_hits>  (1301) 
2

>  <submitter_name>  (1301) 
nan

>  <original SMILES>  (1301) 
nan

>  <∆G_unbound>  (1301) 
0.934262

>  <∆G_bound>  (1301) 
-12.482479

>  <regarded>  (1301) 
mArh-2fav_B_0_B_α,mArh-5cms_I_8_I_γ

>  <ref_pdb>  (1301) 
nan

>  <smiles>  (1301) 
CC1C(O)C(O)CN1CCCCCC1OCC(O)C1O

>  <submitter_email>  (1301) 
nan

>  <disregarded>  (1301) 


>  <LE>  (1301) 
-0.670837

>  <submitter_institution>  (1301) 
nan

>  <ref_mols>  (1301) 
mArh-2fav_B_0_B,mArh-5cms_I_8_I

>  <N_constrained_atoms>  (1301) 
16.0

>  <ref_url>  (1301) 
nan

>  <method>  (1301) 
nan

>  <comRMSD>  (1301) 
6.804311

>  <N_unconstrained_atoms>  (1301) 
4.0

>  <∆∆G>  (1301) 
-13.416741

>  <runtime>  (1301) 
35.700365

>  <generation_date>  (1301) 
nan

$$$$
3Q6Z_0_A_α-mArh-5cb5_O_0_O_γ
     RDKit          3D

 21 22  0  0  0  0  0  0  0  0999 V2000
   -1.6230   21.8980   -7.9430 C   0  0  0  0  0  0  0  0  0  0  0  0
   -3.1060   21.9840   -8.2920 C   0  0  2  0  0  0  0  0  0  0  0  0
   -3.7000   23.3470   -7.8620 C   0  0  1  0  0  0  0  0  0  0  0  0
   -3.8490   20.9480   -7.5450 N   0  0  0  0  0  0  0  0  0  0  0  0
   -4.6520   23.8170   -8.8360 O   0  0  0  0  0  0  0  0  0  0  0  0
   -3.0590   19.8150   -7.0090 C   0  0  0  0  0  0  0  0  0  0  0  0
   -4.4070   23.0570   -6.5450 C   0  0  2  0  0  0  0  0  0  0  0  0
   -4.8340   21.5800   -6.6720 C   0  0  1  0  0  0  0  0  0  0  0  0
   -5.5230   23.9500   -6.3880 O   0  0  0  0  0  0  0  0  0  0  0  0
   -6.0970   21.4860   -7.3110 O   0  0  0  0  0  0  0  0  0  0  0  0
   -2.1120   19.9820   -5.8410 C   0  0  0  0  0  0  0  0  0  0  0  0
   -0.9340   19.0180   -6.0640 C   0  0  0  0  0  0  0  0  0  0  0  0
   -0.6400   18.0510   -4.9250 C   0  0  0  0  0  0  0  0  0  0  0  0
    0.6430   17.2480   -5.1360 C   0  0  0  0  0  0  0  0  0  0  0  0
    0.8110   15.9210   -4.3780 C   0  0  1  0  0  0  0  0  0  0  0  0
    0.1250   15.9430   -3.1110 O   0  0  0  0  0  0  0  0  0  0  0  0
    0.4480   14.5950   -5.0700 C   0  0  1  0  0  0  0  0  0  0  0  0
    1.4400   13.5790   -5.0930 O   0  0  0  0  0  0  0  0  0  0  0  0
   -0.5480   14.6830   -2.9300 C   0  0  0  0  0  0  0  0  0  0  0  0
   -0.7810   14.1220   -4.3140 C   0  0  2  0  0  0  0  0  0  0  0  0
   -0.8770   12.7030   -4.3220 O   0  0  0  0  0  0  0  0  0  0  0  0
  2  1  1  1
  2  3  1  0
  2  4  1  0
  3  5  1  6
  4  6  1  0
  3  7  1  0
  4  8  1  0
  7  8  1  0
  7  9  1  6
  8 10  1  6
  6 11  1  0
 11 12  1  0
 12 13  1  0
 13 14  1  0
 15 14  1  6
 15 16  1  0
 15 17  1  0
 17 18  1  1
 16 19  1  0
 17 20  1  0
 19 20  1  0
 20 21  1  1
M  END
>  <%Rank>  (1302) 
99.312977

>  <N_hits>  (1302) 
2

>  <submitter_name>  (1302) 
nan

>  <original SMILES>  (1302) 
nan

>  <∆G_unbound>  (1302) 
1.128256

>  <∆G_bound>  (1302) 
-11.277254

>  <regarded>  (1302) 
3Q6Z_0_A_α,mArh-5cb5_O_0_O_γ

>  <ref_pdb>  (1302) 
nan

>  <smiles>  (1302) 
CC1C(O)C(O)C(O)N1CCCCCC1OCC(O)C1O

>  <submitter_email>  (1302) 
nan

>  <disregarded>  (1302) 


>  <LE>  (1302) 
-0.590739

>  <submitter_institution>  (1302) 
nan

>  <ref_mols>  (1302) 
3Q6Z_0_A,mArh-5cb5_O_0_O

>  <N_constrained_atoms>  (1302) 
17.0

>  <ref_url>  (1302) 
nan

>  <method>  (1302) 
nan

>  <comRMSD>  (1302) 
6.881412

>  <N_unconstrained_atoms>  (1302) 
4.0

>  <∆∆G>  (1302) 
-12.40551

>  <runtime>  (1302) 
33.013253

>  <generation_date>  (1302) 
nan

$$$$
mArh-6woj_A_0_A_γ-mArh-x0631_0_A_β
     RDKit          3D

 18 19  0  0  0  0  0  0  0  0999 V2000
   -1.4020   13.1340   -4.5820 O   0  0  0  0  0  0  0  0  0  0  0  0
   -0.2370   13.5910   -3.9040 C   0  0  2  0  0  0  0  0  0  0  0  0
   -0.5270   14.7930   -3.0290 C   0  0  0  0  0  0  0  0  0  0  0  0
    0.8010   14.1010   -4.8790 C   0  0  2  0  0  0  0  0  0  0  0  0
    1.8330   13.1090   -4.9020 O   0  0  0  0  0  0  0  0  0  0  0  0
    0.6680   15.5750   -2.9910 O   0  0  0  0  0  0  0  0  0  0  0  0
    1.2960   15.4330   -4.2730 C   0  0  2  0  0  0  0  0  0  0  0  0
    0.9020   16.6550   -5.0970 C   0  0  0  0  0  0  0  0  0  0  0  0
    1.6720   12.3310   -6.0800 C   0  0  0  0  0  0  0  0  0  0  0  0
    0.3340   11.5720   -6.1300 C   0  0  0  0  0  0  0  0  0  0  0  0
    0.0180   10.7770   -7.3610 N   0  0  0  0  0  0  0  0  0  0  0  0
    0.7520    9.5520   -7.4630 N   0  0  0  0  0  0  0  0  0  0  0  0
    0.2220   11.5110   -8.6160 N   0  0  0  0  0  0  0  0  0  0  0  0
   -0.0130    8.4700   -6.7740 C   0  0  0  0  0  0  0  0  0  0  0  0
    0.8530   10.5760   -9.5400 C   0  0  0  0  0  0  0  0  0  0  0  0
    0.8720    9.2760   -8.8770 N   0  0  0  0  0  0  0  0  0  0  0  0
   -1.3340    8.0940   -7.4510 C   0  0  0  0  0  0  0  0  0  0  0  0
   -2.3370    9.2350   -7.4360 C   0  0  0  0  0  0  0  0  0  0  0  0
  2  1  1  6
  2  3  1  0
  2  4  1  0
  4  5  1  1
  3  6  1  0
  4  7  1  0
  6  7  1  0
  7  8  1  6
  5  9  1  0
  9 10  1  0
 10 11  1  0
 11 12  1  0
 11 13  1  0
 12 14  1  0
 13 15  1  0
 12 16  1  0
 15 16  1  0
 14 17  1  0
 17 18  1  0
M  END
>  <%Rank>  (1303) 
99.389313

>  <N_hits>  (1303) 
2

>  <submitter_name>  (1303) 
nan

>  <original SMILES>  (1303) 
nan

>  <∆G_unbound>  (1303) 
0.077446

>  <∆G_bound>  (1303) 
-5.191354

>  <regarded>  (1303) 
mArh-6woj_A_0_A_γ,mArh-x0631_0_A_β

>  <ref_pdb>  (1303) 
nan

>  <smiles>  (1303) 
CCCN1NCNN1CCOC1C(O)COC1C

>  <submitter_email>  (1303) 
nan

>  <disregarded>  (1303) 


>  <LE>  (1303) 
-0.292711

>  <submitter_institution>  (1303) 
nan

>  <ref_mols>  (1303) 
mArh-6woj_A_0_A,mArh-x0631_0_A

>  <N_constrained_atoms>  (1303) 
16.0

>  <ref_url>  (1303) 
nan

>  <method>  (1303) 
nan

>  <comRMSD>  (1303) 
6.804086

>  <N_unconstrained_atoms>  (1303) 
2.0

>  <∆∆G>  (1303) 
-5.268801

>  <runtime>  (1303) 
45.059268

>  <generation_date>  (1303) 
nan

$$$$
mArh-5cb5_K_0_K_γ-mArh-x0631_0_A_β
     RDKit          3D

 18 19  0  0  0  0  0  0  0  0999 V2000
   -1.4030   12.5540   -3.9300 O   0  0  0  0  0  0  0  0  0  0  0  0
   -0.6080   13.6770   -3.5720 C   0  0  2  0  0  0  0  0  0  0  0  0
   -1.4230   14.8950   -3.2240 C   0  0  0  0  0  0  0  0  0  0  0  0
    0.1840   14.1810   -4.7470 C   0  0  2  0  0  0  0  0  0  0  0  0
    1.3350   13.3530   -4.8260 O   0  0  0  0  0  0  0  0  0  0  0  0
   -0.6380   16.0420   -3.6010 O   0  0  0  0  0  0  0  0  0  0  0  0
    0.5260   15.6080   -4.3010 C   0  0  2  0  0  0  0  0  0  0  0  0
    0.7580   16.6380   -5.4020 C   0  0  0  0  0  0  0  0  0  0  0  0
    1.3470   12.7480   -6.0940 C   0  0  0  0  0  0  0  0  0  0  0  0
    0.4160   11.5440   -6.2580 C   0  0  0  0  0  0  0  0  0  0  0  0
    0.8750   10.6640   -7.3620 N   0  0  0  0  0  0  0  0  0  0  0  0
   -0.0590    9.6490   -7.7230 N   0  0  0  0  0  0  0  0  0  0  0  0
    0.8700   11.4250   -8.6040 N   0  0  0  0  0  0  0  0  0  0  0  0
   -0.1700    8.5670   -6.7160 C   0  0  0  0  0  0  0  0  0  0  0  0
    0.9580   10.3930   -9.6280 C   0  0  0  0  0  0  0  0  0  0  0  0
    0.5130    9.1670   -8.9630 N   0  0  0  0  0  0  0  0  0  0  0  0
   -1.5180    7.8670   -6.8380 C   0  0  0  0  0  0  0  0  0  0  0  0
   -2.5420    8.8070   -7.4500 C   0  0  0  0  0  0  0  0  0  0  0  0
  2  1  1  6
  2  3  1  0
  2  4  1  0
  4  5  1  1
  3  6  1  0
  4  7  1  0
  6  7  1  0
  7  8  1  6
  5  9  1  0
  9 10  1  0
 10 11  1  0
 11 12  1  0
 11 13  1  0
 12 14  1  0
 13 15  1  0
 12 16  1  0
 15 16  1  0
 14 17  1  0
 17 18  1  0
M  END
>  <%Rank>  (1304) 
99.465649

>  <N_hits>  (1304) 
2

>  <submitter_name>  (1304) 
nan

>  <original SMILES>  (1304) 
nan

>  <∆G_unbound>  (1304) 
0.077446

>  <∆G_bound>  (1304) 
-4.470904

>  <regarded>  (1304) 
mArh-5cb5_K_0_K_γ,mArh-x0631_0_A_β

>  <ref_pdb>  (1304) 
nan

>  <smiles>  (1304) 
CCCN1NCNN1CCOC1C(O)COC1C

>  <submitter_email>  (1304) 
nan

>  <disregarded>  (1304) 


>  <LE>  (1304) 
-0.252686

>  <submitter_institution>  (1304) 
nan

>  <ref_mols>  (1304) 
mArh-5cb5_K_0_K,mArh-x0631_0_A

>  <N_constrained_atoms>  (1304) 
16.0

>  <ref_url>  (1304) 
nan

>  <method>  (1304) 
nan

>  <comRMSD>  (1304) 
6.788912

>  <N_unconstrained_atoms>  (1304) 
2.0

>  <∆∆G>  (1304) 
-4.54835

>  <runtime>  (1304) 
35.75005

>  <generation_date>  (1304) 
nan

$$$$
mArh-4iqy_B_0_B_α-5CMS_0_K_γ
     RDKit          3D

 21 22  0  0  0  0  0  0  0  0999 V2000
   -1.6720   22.0330   -8.0550 C   0  0  0  0  0  0  0  0  0  0  0  0
   -3.1650   21.8990   -8.3540 C   0  0  1  0  0  0  0  0  0  0  0  0
   -3.8390   20.9200   -7.5060 N   0  0  0  0  0  0  0  0  0  0  0  0
   -3.8980   23.2430   -8.1470 C   0  0  1  0  0  0  0  0  0  0  0  0
   -4.3400   23.8800   -9.3470 O   0  0  0  0  0  0  0  0  0  0  0  0
   -3.0380   19.7880   -6.9970 C   0  0  0  0  0  0  0  0  0  0  0  0
   -4.9120   21.5340   -6.7260 C   0  0  1  0  0  0  0  0  0  0  0  0
   -5.1540   22.9110   -7.3530 C   0  0  1  0  0  0  0  0  0  0  0  0
   -6.1390   20.8370   -6.8790 O   0  0  0  0  0  0  0  0  0  0  0  0
   -5.4400   23.9100   -6.3710 O   0  0  0  0  0  0  0  0  0  0  0  0
   -2.1030   19.8790   -5.7880 C   0  0  0  0  0  0  0  0  0  0  0  0
   -0.9120   18.9090   -5.9810 C   0  0  0  0  0  0  0  0  0  0  0  0
   -0.5800   17.9170   -4.8500 C   0  0  0  0  0  0  0  0  0  0  0  0
    0.4700   16.9100   -5.3610 C   0  0  0  0  0  0  0  0  0  0  0  0
    0.7500   15.6860   -4.4560 C   0  0  1  0  0  0  0  0  0  0  0  0
    0.0170   15.8150   -3.2230 O   0  0  0  0  0  0  0  0  0  0  0  0
    0.3740   14.3100   -5.0480 C   0  0  1  0  0  0  0  0  0  0  0  0
    1.3370   13.2810   -4.8670 O   0  0  0  0  0  0  0  0  0  0  0  0
   -0.7100   14.6060   -2.9940 C   0  0  0  0  0  0  0  0  0  0  0  0
   -0.9360   13.9730   -4.3510 C   0  0  2  0  0  0  0  0  0  0  0  0
   -1.1510   12.5670   -4.2920 O   0  0  0  0  0  0  0  0  0  0  0  0
  2  1  1  1
  2  3  1  0
  2  4  1  0
  4  5  1  6
  3  6  1  0
  3  7  1  0
  4  8  1  0
  7  8  1  0
  7  9  1  6
  8 10  1  1
  6 11  1  0
 11 12  1  0
 12 13  1  0
 13 14  1  0
 15 14  1  6
 15 16  1  0
 15 17  1  0
 17 18  1  1
 16 19  1  0
 17 20  1  0
 19 20  1  0
 20 21  1  1
M  END
>  <%Rank>  (1305) 
99.541985

>  <N_hits>  (1305) 
2

>  <submitter_name>  (1305) 
nan

>  <original SMILES>  (1305) 
nan

>  <∆G_unbound>  (1305) 
0.188691

>  <∆G_bound>  (1305) 
-11.313154

>  <regarded>  (1305) 
mArh-4iqy_B_0_B_α,5CMS_0_K_γ

>  <ref_pdb>  (1305) 
nan

>  <smiles>  (1305) 
CC1C(O)C(O)C(O)N1CCCCCC1OCC(O)C1O

>  <submitter_email>  (1305) 
nan

>  <disregarded>  (1305) 


>  <LE>  (1305) 
-0.547707

>  <submitter_institution>  (1305) 
nan

>  <ref_mols>  (1305) 
mArh-4iqy_B_0_B,5CMS_0_K

>  <N_constrained_atoms>  (1305) 
17.0

>  <ref_url>  (1305) 
nan

>  <method>  (1305) 
nan

>  <comRMSD>  (1305) 
7.150937

>  <N_unconstrained_atoms>  (1305) 
4.0

>  <∆∆G>  (1305) 
-11.501845

>  <runtime>  (1305) 
29.106008

>  <generation_date>  (1305) 
nan

$$$$
3Q6Z_0_A_α-mArh-5lw0_B_1_B_γ
     RDKit          3D

 21 22  0  0  0  0  0  0  0  0999 V2000
   -1.5160   22.0050   -7.9660 C   0  0  0  0  0  0  0  0  0  0  0  0
   -3.0310   21.9980   -8.1520 C   0  0  2  0  0  0  0  0  0  0  0  0
   -3.6440   23.3930   -7.8460 C   0  0  1  0  0  0  0  0  0  0  0  0
   -3.6020   21.0500   -7.1690 N   0  0  0  0  0  0  0  0  0  0  0  0
   -4.6000   23.7780   -8.8540 O   0  0  0  0  0  0  0  0  0  0  0  0
   -2.6460   20.5790   -6.1310 C   0  0  0  0  0  0  0  0  0  0  0  0
   -4.3640   23.2050   -6.5160 C   0  0  2  0  0  0  0  0  0  0  0  0
   -4.7600   21.7340   -6.5830 C   0  0  1  0  0  0  0  0  0  0  0  0
   -5.5150   24.0590   -6.4220 O   0  0  0  0  0  0  0  0  0  0  0  0
   -5.8960   21.6130   -7.4310 O   0  0  0  0  0  0  0  0  0  0  0  0
   -2.0040   19.1890   -6.3620 C   0  0  0  0  0  0  0  0  0  0  0  0
   -1.5440   18.4960   -5.0560 C   0  0  0  0  0  0  0  0  0  0  0  0
   -0.0870   18.0050   -4.9840 C   0  0  0  0  0  0  0  0  0  0  0  0
    0.0880   16.5100   -5.2910 C   0  0  0  0  0  0  0  0  0  0  0  0
    0.6070   15.5280   -4.2270 C   0  0  1  0  0  0  0  0  0  0  0  0
   -0.1240   15.6170   -2.9820 O   0  0  0  0  0  0  0  0  0  0  0  0
    0.6290   14.0350   -4.6040 C   0  0  1  0  0  0  0  0  0  0  0  0
    1.7130   13.2480   -4.1260 O   0  0  0  0  0  0  0  0  0  0  0  0
   -0.7150   14.3300   -2.6950 C   0  0  0  0  0  0  0  0  0  0  0  0
   -0.6550   13.5290   -3.9850 C   0  0  2  0  0  0  0  0  0  0  0  0
   -0.5840   12.1280   -3.7770 O   0  0  0  0  0  0  0  0  0  0  0  0
  2  1  1  1
  2  3  1  0
  2  4  1  0
  3  5  1  6
  4  6  1  0
  3  7  1  0
  4  8  1  0
  7  8  1  0
  7  9  1  6
  8 10  1  6
  6 11  1  0
 11 12  1  0
 12 13  1  0
 13 14  1  0
 15 14  1  6
 15 16  1  0
 15 17  1  0
 17 18  1  1
 16 19  1  0
 17 20  1  0
 19 20  1  0
 20 21  1  1
M  END
>  <%Rank>  (1306) 
99.618321

>  <N_hits>  (1306) 
2

>  <submitter_name>  (1306) 
nan

>  <original SMILES>  (1306) 
nan

>  <∆G_unbound>  (1306) 
1.128256

>  <∆G_bound>  (1306) 
-11.788036

>  <regarded>  (1306) 
3Q6Z_0_A_α,mArh-5lw0_B_1_B_γ

>  <ref_pdb>  (1306) 
nan

>  <smiles>  (1306) 
CC1C(O)C(O)C(O)N1CCCCCC1OCC(O)C1O

>  <submitter_email>  (1306) 
nan

>  <disregarded>  (1306) 


>  <LE>  (1306) 
-0.615062

>  <submitter_institution>  (1306) 
nan

>  <ref_mols>  (1306) 
3Q6Z_0_A,mArh-5lw0_B_1_B

>  <N_constrained_atoms>  (1306) 
17.0

>  <ref_url>  (1306) 
nan

>  <method>  (1306) 
nan

>  <comRMSD>  (1306) 
7.316741

>  <N_unconstrained_atoms>  (1306) 
4.0

>  <∆∆G>  (1306) 
-12.916293

>  <runtime>  (1306) 
37.123647

>  <generation_date>  (1306) 
nan

$$$$
mArh-4iqy_B_0_B_α-6WOJ_0_C_γ
     RDKit          3D

 21 22  0  0  0  0  0  0  0  0999 V2000
   -1.6270   22.0180   -8.0470 C   0  0  0  0  0  0  0  0  0  0  0  0
   -3.1210   21.8620   -8.3110 C   0  0  1  0  0  0  0  0  0  0  0  0
   -3.7600   20.8850   -7.4300 N   0  0  0  0  0  0  0  0  0  0  0  0
   -3.8640   23.2070   -8.1030 C   0  0  1  0  0  0  0  0  0  0  0  0
   -4.3160   23.8530   -9.2990 O   0  0  0  0  0  0  0  0  0  0  0  0
   -2.9590   19.7260   -6.9570 C   0  0  0  0  0  0  0  0  0  0  0  0
   -4.8660   21.4850   -6.6810 C   0  0  1  0  0  0  0  0  0  0  0  0
   -5.1140   22.8620   -7.3120 C   0  0  1  0  0  0  0  0  0  0  0  0
   -6.0830   20.7770   -6.8720 O   0  0  0  0  0  0  0  0  0  0  0  0
   -5.4180   23.8670   -6.3430 O   0  0  0  0  0  0  0  0  0  0  0  0
   -2.1150   19.7180   -5.6610 C   0  0  0  0  0  0  0  0  0  0  0  0
   -1.5470   18.3000   -5.3250 C   0  0  0  0  0  0  0  0  0  0  0  0
   -0.0640   18.1830   -4.8880 C   0  0  0  0  0  0  0  0  0  0  0  0
    0.5940   16.8980   -5.4240 C   0  0  0  0  0  0  0  0  0  0  0  0
    0.9760   15.7840   -4.4240 C   0  0  1  0  0  0  0  0  0  0  0  0
    0.1750   15.8310   -3.2140 O   0  0  0  0  0  0  0  0  0  0  0  0
    0.7590   14.3790   -5.0140 C   0  0  1  0  0  0  0  0  0  0  0  0
    1.7310   13.4010   -4.6810 O   0  0  0  0  0  0  0  0  0  0  0  0
   -0.5010   14.5730   -3.0780 C   0  0  0  0  0  0  0  0  0  0  0  0
   -0.6170   14.0210   -4.4830 C   0  0  2  0  0  0  0  0  0  0  0  0
   -0.8580   12.6210   -4.5480 O   0  0  0  0  0  0  0  0  0  0  0  0
  2  1  1  1
  2  3  1  0
  2  4  1  0
  4  5  1  6
  3  6  1  0
  3  7  1  0
  4  8  1  0
  7  8  1  0
  7  9  1  6
  8 10  1  1
  6 11  1  0
 11 12  1  0
 12 13  1  0
 13 14  1  0
 15 14  1  6
 15 16  1  0
 15 17  1  0
 17 18  1  1
 16 19  1  0
 17 20  1  0
 19 20  1  0
 20 21  1  1
M  END
>  <%Rank>  (1307) 
99.694656

>  <N_hits>  (1307) 
2

>  <submitter_name>  (1307) 
nan

>  <original SMILES>  (1307) 
nan

>  <∆G_unbound>  (1307) 
0.188691

>  <∆G_bound>  (1307) 
-12.318011

>  <regarded>  (1307) 
mArh-4iqy_B_0_B_α,6WOJ_0_C_γ

>  <ref_pdb>  (1307) 
nan

>  <smiles>  (1307) 
CC1C(O)C(O)C(O)N1CCCCCC1OCC(O)C1O

>  <submitter_email>  (1307) 
nan

>  <disregarded>  (1307) 


>  <LE>  (1307) 
-0.595557

>  <submitter_institution>  (1307) 
nan

>  <ref_mols>  (1307) 
mArh-4iqy_B_0_B,6WOJ_0_C

>  <N_constrained_atoms>  (1307) 
17.0

>  <ref_url>  (1307) 
nan

>  <method>  (1307) 
nan

>  <comRMSD>  (1307) 
7.421794

>  <N_unconstrained_atoms>  (1307) 
4.0

>  <∆∆G>  (1307) 
-12.506702

>  <runtime>  (1307) 
36.428154

>  <generation_date>  (1307) 
nan

$$$$
mArh-5l9k_B_0_B_α-mArh-5cms_R_17_R_γ
     RDKit          3D

 21 22  0  0  0  0  0  0  0  0999 V2000
   -2.1330   21.9420   -8.2770 C   0  0  0  0  0  0  0  0  0  0  0  0
   -3.6490   21.9290   -8.4550 C   0  0  1  0  0  0  0  0  0  0  0  0
   -4.3240   21.1120   -7.4480 N   0  0  0  0  0  0  0  0  0  0  0  0
   -4.2030   23.3670   -8.3040 C   0  0  1  0  0  0  0  0  0  0  0  0
   -4.5490   24.0260   -9.5140 O   0  0  0  0  0  0  0  0  0  0  0  0
   -3.4510   20.7500   -6.3000 C   0  0  0  0  0  0  0  0  0  0  0  0
   -5.6190   21.7490   -7.1390 C   0  0  1  0  0  0  0  0  0  0  0  0
   -5.4930   23.2390   -7.5120 C   0  0  1  0  0  0  0  0  0  0  0  0
   -6.6990   21.2130   -7.9180 O   0  0  0  0  0  0  0  0  0  0  0  0
   -5.5180   24.1080   -6.3710 O   0  0  0  0  0  0  0  0  0  0  0  0
   -2.3870   19.6000   -6.5000 C   0  0  0  0  0  0  0  0  0  0  0  0
   -1.8430   18.9130   -5.2090 C   0  0  0  0  0  0  0  0  0  0  0  0
   -0.3720   18.4240   -5.1360 C   0  0  0  0  0  0  0  0  0  0  0  0
   -0.1910   16.9890   -5.6570 C   0  0  0  0  0  0  0  0  0  0  0  0
    0.6440   15.9940   -4.7960 C   0  0  1  0  0  0  0  0  0  0  0  0
    0.2300   16.0750   -3.4200 O   0  0  0  0  0  0  0  0  0  0  0  0
    0.5210   14.4940   -5.1960 C   0  0  1  0  0  0  0  0  0  0  0  0
    1.7330   13.7780   -5.3710 O   0  0  0  0  0  0  0  0  0  0  0  0
    0.0920   14.7440   -2.9080 C   0  0  0  0  0  0  0  0  0  0  0  0
   -0.2980   13.8720   -4.0790 C   0  0  2  0  0  0  0  0  0  0  0  0
    0.0300   12.4950   -3.9070 O   0  0  0  0  0  0  0  0  0  0  0  0
  2  1  1  1
  2  3  1  0
  2  4  1  0
  4  5  1  6
  3  6  1  0
  3  7  1  0
  4  8  1  0
  7  8  1  0
  7  9  1  6
  8 10  1  1
  6 11  1  0
 11 12  1  0
 12 13  1  0
 13 14  1  0
 15 14  1  6
 15 16  1  0
 15 17  1  0
 17 18  1  1
 16 19  1  0
 17 20  1  0
 19 20  1  0
 20 21  1  1
M  END
>  <%Rank>  (1308) 
99.770992

>  <N_hits>  (1308) 
2

>  <submitter_name>  (1308) 
nan

>  <original SMILES>  (1308) 
nan

>  <∆G_unbound>  (1308) 
0.188691

>  <∆G_bound>  (1308) 
-11.360684

>  <regarded>  (1308) 
mArh-5l9k_B_0_B_α,mArh-5cms_R_17_R_γ

>  <ref_pdb>  (1308) 
nan

>  <smiles>  (1308) 
CC1C(O)C(O)C(O)N1CCCCCC1OCC(O)C1O

>  <submitter_email>  (1308) 
nan

>  <disregarded>  (1308) 


>  <LE>  (1308) 
-0.54997

>  <submitter_institution>  (1308) 
nan

>  <ref_mols>  (1308) 
mArh-5l9k_B_0_B,mArh-5cms_R_17_R

>  <N_constrained_atoms>  (1308) 
17.0

>  <ref_url>  (1308) 
nan

>  <method>  (1308) 
nan

>  <comRMSD>  (1308) 
7.78745

>  <N_unconstrained_atoms>  (1308) 
4.0

>  <∆∆G>  (1308) 
-11.549375

>  <runtime>  (1308) 
39.845021

>  <generation_date>  (1308) 
nan

$$$$
3VFQ_0_A_α-5CMS_0_L_γ
     RDKit          3D

 21 22  0  0  0  0  0  0  0  0999 V2000
   -4.0600   20.0190   -6.8110 C   0  0  0  0  0  0  0  0  0  0  0  0
   -4.3600   21.2800   -7.4980 C   0  0  1  0  0  0  0  0  0  0  0  0
   -3.5280   21.5190   -8.5980 N   0  0  0  0  0  0  0  0  0  0  0  0
   -5.7840   21.3410   -7.9710 C   0  0  1  0  0  0  0  0  0  0  0  0
   -6.5090   21.6570   -6.8260 O   0  0  0  0  0  0  0  0  0  0  0  0
   -2.0930   21.5210   -8.1890 C   0  0  0  0  0  0  0  0  0  0  0  0
   -4.2650   22.4470   -9.4960 C   0  0  1  0  0  0  0  0  0  0  0  0
   -5.7510   22.4290   -9.0300 C   0  0  1  0  0  0  0  0  0  0  0  0
   -3.8360   23.7980   -9.3950 O   0  0  0  0  0  0  0  0  0  0  0  0
   -6.6730   22.1570  -10.0920 O   0  0  0  0  0  0  0  0  0  0  0  0
   -1.4600   20.0880   -8.0080 C   0  0  0  0  0  0  0  0  0  0  0  0
   -0.4390   19.7880   -6.8960 C   0  0  0  0  0  0  0  0  0  0  0  0
    0.0530   18.3150   -6.8090 C   0  0  0  0  0  0  0  0  0  0  0  0
   -0.4590   17.4330   -5.6110 C   0  0  0  0  0  0  0  0  0  0  0  0
    0.4800   16.2640   -5.1050 C   0  0  1  0  0  0  0  0  0  0  0  0
    0.5690   16.3680   -3.6640 O   0  0  0  0  0  0  0  0  0  0  0  0
    0.0490   14.7760   -5.3520 C   0  0  1  0  0  0  0  0  0  0  0  0
    0.9620   13.9810   -6.0960 O   0  0  0  0  0  0  0  0  0  0  0  0
    0.6890   15.0530   -3.1110 C   0  0  0  0  0  0  0  0  0  0  0  0
   -0.1290   14.1370   -3.9890 C   0  0  2  0  0  0  0  0  0  0  0  0
    0.3320   12.7870   -4.0000 O   0  0  0  0  0  0  0  0  0  0  0  0
  2  1  1  6
  2  3  1  0
  2  4  1  0
  4  5  1  1
  3  6  1  0
  3  7  1  0
  4  8  1  0
  7  8  1  0
  7  9  1  1
  8 10  1  6
  6 11  1  0
 11 12  1  0
 12 13  1  0
 13 14  1  0
 15 14  1  1
 15 16  1  0
 15 17  1  0
 17 18  1  6
 16 19  1  0
 17 20  1  0
 19 20  1  0
 20 21  1  6
M  END
>  <%Rank>  (1309) 
99.847328

>  <N_hits>  (1309) 
2

>  <submitter_name>  (1309) 
nan

>  <original SMILES>  (1309) 
nan

>  <∆G_unbound>  (1309) 
0.188691

>  <∆G_bound>  (1309) 
-6.683865

>  <regarded>  (1309) 
3VFQ_0_A_α,5CMS_0_L_γ

>  <ref_pdb>  (1309) 
nan

>  <smiles>  (1309) 
CC1C(O)C(O)C(O)N1CCCCCC1OCC(O)C1O

>  <submitter_email>  (1309) 
nan

>  <disregarded>  (1309) 


>  <LE>  (1309) 
-0.327265

>  <submitter_institution>  (1309) 
nan

>  <ref_mols>  (1309) 
3VFQ_0_A,5CMS_0_L

>  <N_constrained_atoms>  (1309) 
17.0

>  <ref_url>  (1309) 
nan

>  <method>  (1309) 
nan

>  <comRMSD>  (1309) 
7.912916

>  <N_unconstrained_atoms>  (1309) 
4.0

>  <∆∆G>  (1309) 
-6.872556

>  <runtime>  (1309) 
36.089639

>  <generation_date>  (1309) 
nan

$$$$
mArh-3vfq_B_0_A_α-mArh-5cms_K_10_K_γ
     RDKit          3D

 21 22  0  0  0  0  0  0  0  0999 V2000
   -4.2110   21.0830   -5.9680 C   0  0  0  0  0  0  0  0  0  0  0  0
   -4.3140   21.9010   -7.2330 C   0  0  1  0  0  0  0  0  0  0  0  0
   -3.6310   21.3810   -8.3800 N   0  0  0  0  0  0  0  0  0  0  0  0
   -5.7600   22.1570   -7.6870 C   0  0  1  0  0  0  0  0  0  0  0  0
   -6.2330   23.3560   -7.1010 O   0  0  0  0  0  0  0  0  0  0  0  0
   -2.1740   21.1040   -8.1830 C   0  0  0  0  0  0  0  0  0  0  0  0
   -4.1700   22.1780   -9.5080 C   0  0  1  0  0  0  0  0  0  0  0  0
   -5.6650   22.4320   -9.1870 C   0  0  1  0  0  0  0  0  0  0  0  0
   -3.6400   23.4800   -9.5480 O   0  0  0  0  0  0  0  0  0  0  0  0
   -6.6430   21.7300   -9.9530 O   0  0  0  0  0  0  0  0  0  0  0  0
   -1.7540   19.6660   -7.6580 C   0  0  0  0  0  0  0  0  0  0  0  0
   -0.7550   19.5300   -6.4980 C   0  0  0  0  0  0  0  0  0  0  0  0
    0.0550   18.2020   -6.3470 C   0  0  0  0  0  0  0  0  0  0  0  0
   -0.5300   17.1090   -5.3760 C   0  0  0  0  0  0  0  0  0  0  0  0
    0.4750   16.0260   -4.8190 C   0  0  1  0  0  0  0  0  0  0  0  0
    0.3210   15.9730   -3.3730 O   0  0  0  0  0  0  0  0  0  0  0  0
    0.2780   14.5350   -5.1970 C   0  0  1  0  0  0  0  0  0  0  0  0
    1.3860   13.6710   -4.9760 O   0  0  0  0  0  0  0  0  0  0  0  0
   -0.4570   14.8040   -3.0220 C   0  0  0  0  0  0  0  0  0  0  0  0
   -0.8850   14.1360   -4.3170 C   0  0  2  0  0  0  0  0  0  0  0  0
   -1.0030   12.7230   -4.2370 O   0  0  0  0  0  0  0  0  0  0  0  0
  2  1  1  1
  2  3  1  0
  2  4  1  0
  4  5  1  1
  3  6  1  0
  3  7  1  0
  4  8  1  0
  7  8  1  0
  7  9  1  1
  8 10  1  6
  6 11  1  0
 11 12  1  0
 12 13  1  0
 13 14  1  0
 15 14  1  6
 15 16  1  0
 15 17  1  0
 17 18  1  1
 16 19  1  0
 17 20  1  0
 19 20  1  0
 20 21  1  1
M  END
>  <%Rank>  (1310) 
99.923664

>  <N_hits>  (1310) 
2

>  <submitter_name>  (1310) 
nan

>  <original SMILES>  (1310) 
nan

>  <∆G_unbound>  (1310) 
0.188691

>  <∆G_bound>  (1310) 
-7.766386

>  <regarded>  (1310) 
mArh-3vfq_B_0_A_α,mArh-5cms_K_10_K_γ

>  <ref_pdb>  (1310) 
nan

>  <smiles>  (1310) 
CC1C(O)C(O)C(O)N1CCCCCC1OCC(O)C1O

>  <submitter_email>  (1310) 
nan

>  <disregarded>  (1310) 


>  <LE>  (1310) 
-0.378813

>  <submitter_institution>  (1310) 
nan

>  <ref_mols>  (1310) 
mArh-3vfq_B_0_A,mArh-5cms_K_10_K

>  <N_constrained_atoms>  (1310) 
17.0

>  <ref_url>  (1310) 
nan

>  <method>  (1310) 
nan

>  <comRMSD>  (1310) 
8.032161

>  <N_unconstrained_atoms>  (1310) 
4.0

>  <∆∆G>  (1310) 
-7.955077

>  <runtime>  (1310) 
43.774201

>  <generation_date>  (1310) 
nan

$$$$
3VFQ_0_A_α-mArh-5cb5_O_0_O_γ
     RDKit          3D

 21 22  0  0  0  0  0  0  0  0999 V2000
   -4.0500   20.0340   -6.7800 C   0  0  0  0  0  0  0  0  0  0  0  0
   -4.3360   21.2900   -7.4720 C   0  0  1  0  0  0  0  0  0  0  0  0
   -3.5080   21.4890   -8.5810 N   0  0  0  0  0  0  0  0  0  0  0  0
   -5.7620   21.3490   -7.9440 C   0  0  1  0  0  0  0  0  0  0  0  0
   -6.4940   21.6770   -6.8050 O   0  0  0  0  0  0  0  0  0  0  0  0
   -2.0620   21.4450   -8.1960 C   0  0  0  0  0  0  0  0  0  0  0  0
   -4.2360   22.4200   -9.4870 C   0  0  1  0  0  0  0  0  0  0  0  0
   -5.7230   22.4210   -9.0190 C   0  0  1  0  0  0  0  0  0  0  0  0
   -3.7980   23.7660   -9.3870 O   0  0  0  0  0  0  0  0  0  0  0  0
   -6.6470   22.1410  -10.0770 O   0  0  0  0  0  0  0  0  0  0  0  0
   -1.4570   19.9980   -7.9670 C   0  0  0  0  0  0  0  0  0  0  0  0
   -0.4580   19.7070   -6.8240 C   0  0  0  0  0  0  0  0  0  0  0  0
    0.0080   18.2320   -6.6650 C   0  0  0  0  0  0  0  0  0  0  0  0
   -0.4620   17.4490   -5.3820 C   0  0  0  0  0  0  0  0  0  0  0  0
    0.5090   16.3580   -4.7820 C   0  0  1  0  0  0  0  0  0  0  0  0
    0.3060   16.3080   -3.3400 O   0  0  0  0  0  0  0  0  0  0  0  0
    0.3420   14.8660   -5.1740 C   0  0  1  0  0  0  0  0  0  0  0  0
    1.4870   14.0390   -5.0310 O   0  0  0  0  0  0  0  0  0  0  0  0
   -0.2830   15.0380   -2.9790 C   0  0  0  0  0  0  0  0  0  0  0  0
   -0.7690   14.4060   -4.2600 C   0  0  2  0  0  0  0  0  0  0  0  0
   -0.8550   12.9850   -4.2200 O   0  0  0  0  0  0  0  0  0  0  0  0
  2  1  1  6
  2  3  1  0
  2  4  1  0
  4  5  1  1
  3  6  1  0
  3  7  1  0
  4  8  1  0
  7  8  1  0
  7  9  1  1
  8 10  1  6
  6 11  1  0
 11 12  1  0
 12 13  1  0
 13 14  1  0
 15 14  1  6
 15 16  1  0
 15 17  1  0
 17 18  1  1
 16 19  1  0
 17 20  1  0
 19 20  1  0
 20 21  1  1
M  END
>  <%Rank>  (1311) 
100.0

>  <N_hits>  (1311) 
2

>  <submitter_name>  (1311) 
nan

>  <original SMILES>  (1311) 
nan

>  <∆G_unbound>  (1311) 
0.188691

>  <∆G_bound>  (1311) 
-6.5729

>  <regarded>  (1311) 
3VFQ_0_A_α,mArh-5cb5_O_0_O_γ

>  <ref_pdb>  (1311) 
nan

>  <smiles>  (1311) 
CC1C(O)C(O)C(O)N1CCCCCC1OCC(O)C1O

>  <submitter_email>  (1311) 
nan

>  <disregarded>  (1311) 


>  <LE>  (1311) 
-0.321981

>  <submitter_institution>  (1311) 
nan

>  <ref_mols>  (1311) 
3VFQ_0_A,mArh-5cb5_O_0_O

>  <N_constrained_atoms>  (1311) 
17.0

>  <ref_url>  (1311) 
nan

>  <method>  (1311) 
nan

>  <comRMSD>  (1311) 
8.041149

>  <N_unconstrained_atoms>  (1311) 
4.0

>  <∆∆G>  (1311) 
-6.761591

>  <runtime>  (1311) 
44.607389

>  <generation_date>  (1311) 
nan

$$$$
5CMS_0_N_γ-3Q6Z_0_A_γ
     RDKit          3D

  9  9  0  0  0  0  0  0  0  0999 V2000
    1.1990   12.3920   -3.7660 O   0  0  0  0  0  0  0  0  0  0  0  0
    0.2890   13.4230   -4.0930 C   0  0  0  0  0  0  0  0  0  0  0  0
    0.1440   14.4850   -2.9990 C   0  0  0  0  0  0  0  0  0  0  0  0
   -0.9420   12.8120   -4.4330 O   0  0  0  0  0  0  0  0  0  0  0  0
    0.8740   14.1950   -5.2790 C   0  0  1  0  0  0  0  0  0  0  0  0
    0.0670   13.8390   -6.3830 O   0  0  0  0  0  0  0  0  0  0  0  0
   -0.0560   15.7200   -3.6770 O   0  0  0  0  0  0  0  0  0  0  0  0
    0.8700   15.6750   -4.7670 C   0  0  2  0  0  0  0  0  0  0  0  0
    0.5660   16.8660   -5.6620 C   0  0  0  0  0  0  0  0  0  0  0  0
  2  1  1  0
  2  3  1  0
  2  4  1  0
  2  5  1  0
  5  6  1  6
  3  7  1  0
  5  8  1  0
  7  8  1  0
  8  9  1  6
M  END
>  <%Rank>  (1312) 
nan

>  <N_hits>  (1312) 
2

>  <submitter_name>  (1312) 
nan

>  <original SMILES>  (1312) 
nan

>  <∆G_unbound>  (1312) 
0.013016

>  <∆G_bound>  (1312) 
-3.121524

>  <regarded>  (1312) 
5CMS_0_N_γ,3Q6Z_0_A_γ

>  <ref_pdb>  (1312) 
nan

>  <smiles>  (1312) 
CC1OCC(O)(O)C1O

>  <submitter_email>  (1312) 
nan

>  <disregarded>  (1312) 


>  <LE>  (1312) 
-0.348282

>  <submitter_institution>  (1312) 
nan

>  <ref_mols>  (1312) 
5CMS_0_N,3Q6Z_0_A

>  <N_constrained_atoms>  (1312) 
9.0

>  <ref_url>  (1312) 
nan

>  <method>  (1312) 
nan

>  <comRMSD>  (1312) 
nan

>  <N_unconstrained_atoms>  (1312) 
0.0

>  <∆∆G>  (1312) 
-3.13454

>  <runtime>  (1312) 
23.962331

>  <generation_date>  (1312) 
nan

$$$$
mArh-5l9k_A_0_A_α-2FAV_0_B_α
     RDKit          3D

  9  9  0  0  0  0  0  0  0  0999 V2000
   -2.4470   21.7710   -8.3710 C   0  0  0  0  0  0  0  0  0  0  0  0
   -3.9020   21.9640   -8.7560 C   0  0  1  0  0  0  0  0  0  0  0  0
   -4.6910   21.0600   -7.9650 O   0  0  0  0  0  0  0  0  0  0  0  0
   -4.3930   23.3930   -8.5220 C   0  0  1  0  0  0  0  0  0  0  0  0
   -4.7560   24.0560   -9.7280 O   0  0  0  0  0  0  0  0  0  0  0  0
   -5.7790   21.7570   -7.3930 C   0  0  1  0  0  0  0  0  0  0  0  0
   -5.6340   23.2610   -7.6570 C   0  0  1  0  0  0  0  0  0  0  0  0
   -6.9450   21.2750   -8.0640 O   0  0  0  0  0  0  0  0  0  0  0  0
   -5.5670   24.0640   -6.4770 O   0  0  0  0  0  0  0  0  0  0  0  0
  2  1  1  1
  2  3  1  0
  2  4  1  0
  4  5  1  6
  3  6  1  0
  4  7  1  0
  6  7  1  0
  6  8  1  6
  7  9  1  1
M  END
>  <%Rank>  (1313) 
nan

>  <N_hits>  (1313) 
2

>  <submitter_name>  (1313) 
nan

>  <original SMILES>  (1313) 
nan

>  <∆G_unbound>  (1313) 
0.037019

>  <∆G_bound>  (1313) 
-6.328685

>  <regarded>  (1313) 
mArh-5l9k_A_0_A_α,2FAV_0_B_α

>  <ref_pdb>  (1313) 
nan

>  <smiles>  (1313) 
CC1OC(O)C(O)C1O

>  <submitter_email>  (1313) 
nan

>  <disregarded>  (1313) 


>  <LE>  (1313) 
-0.7073

>  <submitter_institution>  (1313) 
nan

>  <ref_mols>  (1313) 
mArh-5l9k_A_0_A,2FAV_0_B

>  <N_constrained_atoms>  (1313) 
9.0

>  <ref_url>  (1313) 
nan

>  <method>  (1313) 
nan

>  <comRMSD>  (1313) 
nan

>  <N_unconstrained_atoms>  (1313) 
0.0

>  <∆∆G>  (1313) 
-6.365704

>  <runtime>  (1313) 
22.025724

>  <generation_date>  (1313) 
nan

$$$$
5CMS_0_K_γ-5CMS_0_C_γ
     RDKit          3D

  8  8  0  0  0  0  0  0  0  0999 V2000
   -0.7080   12.1870   -4.0940 O   0  0  0  0  0  0  0  0  0  0  0  0
   -0.9470   13.5810   -4.2590 C   0  0  1  0  0  0  0  0  0  0  0  0
   -0.6770   14.3710   -2.9790 C   0  0  0  0  0  0  0  0  0  0  0  0
    0.0840   14.1670   -5.1950 C   0  0  2  0  0  0  0  0  0  0  0  0
    1.3540   13.5600   -4.9930 O   0  0  0  0  0  0  0  0  0  0  0  0
   -0.0260   15.6010   -3.3700 O   0  0  0  0  0  0  0  0  0  0  0  0
   -0.0870   15.6350   -4.8010 C   0  0  1  0  0  0  0  0  0  0  0  0
    0.8620   16.6800   -5.3520 C   0  0  0  0  0  0  0  0  0  0  0  0
  2  1  1  1
  2  3  1  0
  2  4  1  0
  4  5  1  1
  3  6  1  0
  4  7  1  0
  6  7  1  0
  7  8  1  6
M  END
>  <%Rank>  (1314) 
nan

>  <N_hits>  (1314) 
2

>  <submitter_name>  (1314) 
nan

>  <original SMILES>  (1314) 
nan

>  <∆G_unbound>  (1314) 
0.021216

>  <∆G_bound>  (1314) 
-2.861619

>  <regarded>  (1314) 
5CMS_0_K_γ,5CMS_0_C_γ

>  <ref_pdb>  (1314) 
nan

>  <smiles>  (1314) 
CC1OCC(O)C1O

>  <submitter_email>  (1314) 
nan

>  <disregarded>  (1314) 


>  <LE>  (1314) 
-0.360354

>  <submitter_institution>  (1314) 
nan

>  <ref_mols>  (1314) 
5CMS_0_K,5CMS_0_C

>  <N_constrained_atoms>  (1314) 
8.0

>  <ref_url>  (1314) 
nan

>  <method>  (1314) 
nan

>  <comRMSD>  (1314) 
nan

>  <N_unconstrained_atoms>  (1314) 
0.0

>  <∆∆G>  (1314) 
-2.882835

>  <runtime>  (1314) 
22.551697

>  <generation_date>  (1314) 
nan

$$$$
5CB5_0_F_δ-mArh-5cms_D_3_D_β
     RDKit          3D

 17 19  0  0  0  0  0  0  0  0999 V2000
   -3.2970   15.1710    1.7530 N   0  0  0  0  0  0  0  0  0  0  0  0
   -2.3220   14.4810    0.9350 C   0  0  1  0  0  0  0  0  0  0  0  0
   -2.2180   15.0240   -0.4980 C   0  0  1  0  0  0  0  0  0  0  0  0
   -1.0410   14.5930    1.6120 N   0  0  0  0  0  0  0  0  0  0  0  0
   -1.0190   14.3250   -1.1400 C   0  0  1  0  0  0  0  0  0  0  0  0
   -3.3280   14.7590   -1.4240 N   0  0  0  0  0  0  0  0  0  0  0  0
   -0.0590   15.3460    0.8260 C   0  0  0  0  0  0  0  0  0  0  0  0
   -1.1920   14.6460   -2.6550 C   0  0  1  0  0  0  0  0  0  0  0  0
   -2.7000   14.9940   -2.7470 C   0  0  0  0  0  0  0  0  0  0  0  0
    0.1900   14.7220   -0.4510 N   0  0  0  0  0  0  0  0  0  0  0  0
   -0.3610   15.8130   -3.0180 O   0  0  0  0  0  0  0  0  0  0  0  0
   -0.7180   13.5980   -3.6970 C   0  0  1  0  0  0  0  0  0  0  0  0
   -1.6180   12.5990   -4.1250 O   0  0  0  0  0  0  0  0  0  0  0  0
   -0.3380   15.8380   -4.4570 C   0  0  2  0  0  0  0  0  0  0  0  0
   -0.1690   14.3840   -4.8920 C   0  0  1  0  0  0  0  0  0  0  0  0
    0.7140   16.7900   -5.0050 C   0  0  0  0  0  0  0  0  0  0  0  0
    1.1690   13.9870   -5.1700 O   0  0  0  0  0  0  0  0  0  0  0  0
  2  1  1  1
  2  3  1  0
  2  4  1  0
  3  5  1  0
  3  6  1  6
  4  7  1  0
  5  8  1  0
  6  9  1  0
  8  9  1  1
  5 10  1  1
  7 10  1  0
  8 11  1  0
  8 12  1  0
 12 13  1  6
 11 14  1  0
 12 15  1  0
 14 15  1  0
 14 16  1  1
 15 17  1  1
M  END
>  <%Rank>  (1315) 
nan

>  <N_hits>  (1315) 
2

>  <submitter_name>  (1315) 
nan

>  <original SMILES>  (1315) 
nan

>  <∆G_unbound>  (1315) 
0.690665

>  <∆G_bound>  (1315) 
-2.559183

>  <regarded>  (1315) 
5CB5_0_F_δ,mArh-5cms_D_3_D_β

>  <ref_pdb>  (1315) 
nan

>  <smiles>  (1315) 
CC1OC2(CNC3C(N)NCNC32)C(O)C1O

>  <submitter_email>  (1315) 
nan

>  <disregarded>  (1315) 


>  <LE>  (1315) 
-0.191168

>  <submitter_institution>  (1315) 
nan

>  <ref_mols>  (1315) 
5CB5_0_F,mArh-5cms_D_3_D

>  <N_constrained_atoms>  (1315) 
17.0

>  <ref_url>  (1315) 
nan

>  <method>  (1315) 
nan

>  <comRMSD>  (1315) 
nan

>  <N_unconstrained_atoms>  (1315) 
0.0

>  <∆∆G>  (1315) 
-3.249848

>  <runtime>  (1315) 
31.658427

>  <generation_date>  (1315) 
nan

$$$$
5CMS_0_A_α-mArh-5cms_J_9_J_α
     RDKit          3D

 10 10  0  0  0  0  0  0  0  0999 V2000
   -2.1490   21.3940   -8.5450 C   0  0  0  0  0  0  0  0  0  0  0  0
   -2.0990   21.6950  -10.0330 C   0  0  1  0  0  0  0  0  0  0  0  0
   -3.4040   22.0630  -10.5120 O   0  0  0  0  0  0  0  0  0  0  0  0
   -1.1610   22.8200  -10.4380 C   0  0  2  0  0  0  0  0  0  0  0  0
   -0.9050   22.8450  -11.8330 O   0  0  0  0  0  0  0  0  0  0  0  0
    0.1640   22.8220   -9.6660 C   0  0  0  0  0  0  0  0  0  0  0  0
   -3.4690   23.4820  -10.5000 C   0  0  2  0  0  0  0  0  0  0  0  0
   -2.0460   23.9970  -10.1860 C   0  0  2  0  0  0  0  0  0  0  0  0
   -4.4000   23.8360   -9.4800 O   0  0  0  0  0  0  0  0  0  0  0  0
   -1.7100   25.0580  -11.0980 O   0  0  0  0  0  0  0  0  0  0  0  0
  2  1  1  1
  2  3  1  0
  2  4  1  0
  4  5  1  0
  4  6  1  1
  3  7  1  0
  4  8  1  0
  7  8  1  0
  7  9  1  1
  8 10  1  6
M  END
>  <%Rank>  (1316) 
nan

>  <N_hits>  (1316) 
2

>  <submitter_name>  (1316) 
nan

>  <original SMILES>  (1316) 
nan

>  <∆G_unbound>  (1316) 
0.113495

>  <∆G_bound>  (1316) 
-2.828193

>  <regarded>  (1316) 
5CMS_0_A_α,mArh-5cms_J_9_J_α

>  <ref_pdb>  (1316) 
nan

>  <smiles>  (1316) 
CC1OC(O)C(O)C1(C)O

>  <submitter_email>  (1316) 
nan

>  <disregarded>  (1316) 


>  <LE>  (1316) 
-0.294169

>  <submitter_institution>  (1316) 
nan

>  <ref_mols>  (1316) 
5CMS_0_A,mArh-5cms_J_9_J

>  <N_constrained_atoms>  (1316) 
10.0

>  <ref_url>  (1316) 
nan

>  <method>  (1316) 
nan

>  <comRMSD>  (1316) 
nan

>  <N_unconstrained_atoms>  (1316) 
0.0

>  <∆∆G>  (1316) 
-2.941687

>  <runtime>  (1316) 
25.649124

>  <generation_date>  (1316) 
nan

$$$$
5CMS_0_Q_γ-5CMS_0_M_γ
     RDKit          3D

  8  8  0  0  0  0  0  0  0  0999 V2000
   -0.9390   12.1030   -4.3230 O   0  0  0  0  0  0  0  0  0  0  0  0
   -1.1230   13.5130   -4.3870 C   0  0  1  0  0  0  0  0  0  0  0  0
   -0.8830   14.2140   -3.0470 C   0  0  0  0  0  0  0  0  0  0  0  0
   -0.0220   14.1070   -5.2170 C   0  0  2  0  0  0  0  0  0  0  0  0
    1.2150   13.4560   -4.9540 O   0  0  0  0  0  0  0  0  0  0  0  0
   -0.1960   15.4570   -3.3420 O   0  0  0  0  0  0  0  0  0  0  0  0
   -0.1730   15.5600   -4.7730 C   0  0  1  0  0  0  0  0  0  0  0  0
    0.8470   16.5780   -5.2400 C   0  0  0  0  0  0  0  0  0  0  0  0
  2  1  1  1
  2  3  1  0
  2  4  1  0
  4  5  1  1
  3  6  1  0
  4  7  1  0
  6  7  1  0
  7  8  1  1
M  END
>  <%Rank>  (1317) 
nan

>  <N_hits>  (1317) 
2

>  <submitter_name>  (1317) 
nan

>  <original SMILES>  (1317) 
nan

>  <∆G_unbound>  (1317) 
0.021216

>  <∆G_bound>  (1317) 
-2.765405

>  <regarded>  (1317) 
5CMS_0_Q_γ,5CMS_0_M_γ

>  <ref_pdb>  (1317) 
nan

>  <smiles>  (1317) 
CC1OCC(O)C1O

>  <submitter_email>  (1317) 
nan

>  <disregarded>  (1317) 


>  <LE>  (1317) 
-0.348328

>  <submitter_institution>  (1317) 
nan

>  <ref_mols>  (1317) 
5CMS_0_Q,5CMS_0_M

>  <N_constrained_atoms>  (1317) 
8.0

>  <ref_url>  (1317) 
nan

>  <method>  (1317) 
nan

>  <comRMSD>  (1317) 
nan

>  <N_unconstrained_atoms>  (1317) 
0.0

>  <∆∆G>  (1317) 
-2.786621

>  <runtime>  (1317) 
20.353672

>  <generation_date>  (1317) 
nan

$$$$
6WOJ_0_B_δ-6MEA_0_A_γ
     RDKit          3D

 17 19  0  0  0  0  0  0  0  0999 V2000
   -4.0270   15.0980    1.3660 N   0  0  0  0  0  0  0  0  0  0  0  0
   -2.9160   14.3440    0.8090 C   0  0  1  0  0  0  0  0  0  0  0  0
   -2.6850   14.6120   -0.6910 C   0  0  1  0  0  0  0  0  0  0  0  0
   -1.7760   14.8010    1.5830 N   0  0  0  0  0  0  0  0  0  0  0  0
   -1.3590   13.9940   -1.1360 C   0  0  1  0  0  0  0  0  0  0  0  0
   -3.6260   14.2050   -1.7260 N   0  0  0  0  0  0  0  0  0  0  0  0
   -0.4960   14.2430    1.1520 C   0  0  0  0  0  0  0  0  0  0  0  0
   -1.3630   14.3610   -2.6590 C   0  0  1  0  0  0  0  0  0  0  0  0
   -2.8580   14.6970   -2.9060 C   0  0  0  0  0  0  0  0  0  0  0  0
   -0.2790   14.4610   -0.2710 N   0  0  0  0  0  0  0  0  0  0  0  0
   -0.4700   15.5110   -2.8690 O   0  0  0  0  0  0  0  0  0  0  0  0
   -0.8260   13.3690   -3.7180 C   0  0  1  0  0  0  0  0  0  0  0  0
   -1.7490   12.4660   -4.2870 O   0  0  0  0  0  0  0  0  0  0  0  0
   -0.3000   15.6380   -4.2900 C   0  0  2  0  0  0  0  0  0  0  0  0
   -0.1590   14.2150   -4.8100 C   0  0  1  0  0  0  0  0  0  0  0  0
    0.8580   16.5630   -4.6180 C   0  0  0  0  0  0  0  0  0  0  0  0
    1.1780   13.7740   -5.0370 O   0  0  0  0  0  0  0  0  0  0  0  0
  2  1  1  1
  2  3  1  0
  2  4  1  0
  3  5  1  0
  3  6  1  6
  4  7  1  0
  5  8  1  0
  6  9  1  0
  8  9  1  6
  5 10  1  1
  7 10  1  0
  8 11  1  0
  8 12  1  0
 12 13  1  6
 11 14  1  0
 12 15  1  0
 14 15  1  0
 14 16  1  1
 15 17  1  1
M  END
>  <%Rank>  (1318) 
nan

>  <N_hits>  (1318) 
2

>  <submitter_name>  (1318) 
nan

>  <original SMILES>  (1318) 
nan

>  <∆G_unbound>  (1318) 
0.690665

>  <∆G_bound>  (1318) 
-3.861659

>  <regarded>  (1318) 
6WOJ_0_B_δ,6MEA_0_A_γ

>  <ref_pdb>  (1318) 
nan

>  <smiles>  (1318) 
CC1OC2(CNC3C(N)NCNC32)C(O)C1O

>  <submitter_email>  (1318) 
nan

>  <disregarded>  (1318) 


>  <LE>  (1318) 
-0.267784

>  <submitter_institution>  (1318) 
nan

>  <ref_mols>  (1318) 
6WOJ_0_B,6MEA_0_A

>  <N_constrained_atoms>  (1318) 
17.0

>  <ref_url>  (1318) 
nan

>  <method>  (1318) 
nan

>  <comRMSD>  (1318) 
nan

>  <N_unconstrained_atoms>  (1318) 
0.0

>  <∆∆G>  (1318) 
-4.552324

>  <runtime>  (1318) 
42.277529

>  <generation_date>  (1318) 
nan

$$$$
5CMS_0_R_γ-5CMS_0_R_δ
     RDKit          3D

 17 19  0  0  0  0  0  0  0  0999 V2000
   -0.2950   12.2210   -3.6030 O   0  0  0  0  0  0  0  0  0  0  0  0
    0.1390   13.5640   -3.5190 C   0  0  2  0  0  0  0  0  0  0  0  0
   -0.7860   14.5760   -2.8020 C   0  0  2  0  0  0  0  0  0  0  0  0
    0.3080   14.1250   -4.9390 C   0  0  2  0  0  0  0  0  0  0  0  0
    1.6220   13.8960   -5.4190 O   0  0  0  0  0  0  0  0  0  0  0  0
   -0.3680   15.8280   -3.4110 O   0  0  0  0  0  0  0  0  0  0  0  0
   -0.1330   15.5910   -4.8150 C   0  0  1  0  0  0  0  0  0  0  0  0
   -0.7880   14.7640   -1.2380 C   0  0  1  0  0  0  0  0  0  0  0  0
   -2.3050   14.2860   -3.0350 C   0  0  0  0  0  0  0  0  0  0  0  0
    0.8020   16.6730   -5.3420 C   0  0  0  0  0  0  0  0  0  0  0  0
   -2.3090   14.9060   -0.9060 C   0  0  1  0  0  0  0  0  0  0  0  0
   -2.9010   13.8730   -1.7280 N   0  0  0  0  0  0  0  0  0  0  0  0
   -0.1250   13.8500   -0.3230 N   0  0  0  0  0  0  0  0  0  0  0  0
   -0.2380   14.3170    1.0580 C   0  0  0  0  0  0  0  0  0  0  0  0
   -2.5560   15.0340    0.6480 C   0  0  1  0  0  0  0  0  0  0  0  0
   -3.8750   14.5980    1.0480 N   0  0  0  0  0  0  0  0  0  0  0  0
   -1.6100   14.3690    1.5100 N   0  0  0  0  0  0  0  0  0  0  0  0
  2  1  1  6
  2  3  1  0
  2  4  1  0
  4  5  1  1
  3  6  1  0
  4  7  1  0
  6  7  1  0
  3  8  1  0
  3  9  1  6
  7 10  1  1
  8 11  1  0
  9 12  1  0
 11 12  1  1
  8 13  1  1
 13 14  1  0
 11 15  1  0
 15 16  1  6
 14 17  1  0
 15 17  1  0
M  END
>  <%Rank>  (1319) 
nan

>  <N_hits>  (1319) 
2

>  <submitter_name>  (1319) 
nan

>  <original SMILES>  (1319) 
nan

>  <∆G_unbound>  (1319) 
0.631637

>  <∆G_bound>  (1319) 
-3.380373

>  <regarded>  (1319) 
5CMS_0_R_γ,5CMS_0_R_δ

>  <ref_pdb>  (1319) 
nan

>  <smiles>  (1319) 
CC1OC2(CNC3C(N)NCNC32)C(O)C1O

>  <submitter_email>  (1319) 
nan

>  <disregarded>  (1319) 


>  <LE>  (1319) 
-0.236001

>  <submitter_institution>  (1319) 
nan

>  <ref_mols>  (1319) 
5CMS_0_R,5CMS_0_R

>  <N_constrained_atoms>  (1319) 
17.0

>  <ref_url>  (1319) 
nan

>  <method>  (1319) 
nan

>  <comRMSD>  (1319) 
nan

>  <N_unconstrained_atoms>  (1319) 
0.0

>  <∆∆G>  (1319) 
-4.01201

>  <runtime>  (1319) 
28.696382

>  <generation_date>  (1319) 
nan

$$$$
5CB5_0_I_δ-4IQY_0_A_γ
     RDKit          3D

 17 19  0  0  0  0  0  0  0  0999 V2000
   -3.8690   15.5330    1.6590 N   0  0  0  0  0  0  0  0  0  0  0  0
   -2.7900   14.8700    0.9450 C   0  0  1  0  0  0  0  0  0  0  0  0
   -2.6150   15.3090   -0.5230 C   0  0  1  0  0  0  0  0  0  0  0  0
   -1.5930   15.1940    1.6860 N   0  0  0  0  0  0  0  0  0  0  0  0
   -1.3650   14.5810   -1.0070 C   0  0  1  0  0  0  0  0  0  0  0  0
   -3.6410   14.9460   -1.5110 N   0  0  0  0  0  0  0  0  0  0  0  0
   -0.3850   14.5830    1.1510 C   0  0  0  0  0  0  0  0  0  0  0  0
   -1.3950   14.7820   -2.5440 C   0  0  1  0  0  0  0  0  0  0  0  0
   -2.9060   15.0160   -2.8000 C   0  0  0  0  0  0  0  0  0  0  0  0
   -0.2200   14.9930   -0.2210 N   0  0  0  0  0  0  0  0  0  0  0  0
   -0.6030   15.9620   -2.9380 O   0  0  0  0  0  0  0  0  0  0  0  0
   -0.7560   13.6660   -3.4080 C   0  0  1  0  0  0  0  0  0  0  0  0
   -1.5660   12.5860   -3.8240 O   0  0  0  0  0  0  0  0  0  0  0  0
   -0.3960   15.8280   -4.3590 C   0  0  2  0  0  0  0  0  0  0  0  0
   -0.0850   14.3550   -4.5980 C   0  0  1  0  0  0  0  0  0  0  0  0
    0.6620   16.7800   -4.8900 C   0  0  0  0  0  0  0  0  0  0  0  0
    1.2990   14.0280   -4.6510 O   0  0  0  0  0  0  0  0  0  0  0  0
  2  1  1  1
  2  3  1  0
  2  4  1  0
  3  5  1  0
  3  6  1  6
  4  7  1  0
  5  8  1  0
  6  9  1  0
  8  9  1  6
  5 10  1  1
  7 10  1  0
  8 11  1  0
  8 12  1  0
 12 13  1  6
 11 14  1  0
 12 15  1  0
 14 15  1  0
 14 16  1  1
 15 17  1  1
M  END
>  <%Rank>  (1320) 
nan

>  <N_hits>  (1320) 
2

>  <submitter_name>  (1320) 
nan

>  <original SMILES>  (1320) 
nan

>  <∆G_unbound>  (1320) 
0.690665

>  <∆G_bound>  (1320) 
-3.206873

>  <regarded>  (1320) 
5CB5_0_I_δ,4IQY_0_A_γ

>  <ref_pdb>  (1320) 
nan

>  <smiles>  (1320) 
CC1OC2(CNC3C(N)NCNC32)C(O)C1O

>  <submitter_email>  (1320) 
nan

>  <disregarded>  (1320) 


>  <LE>  (1320) 
-0.229267

>  <submitter_institution>  (1320) 
nan

>  <ref_mols>  (1320) 
5CB5_0_I,4IQY_0_A

>  <N_constrained_atoms>  (1320) 
17.0

>  <ref_url>  (1320) 
nan

>  <method>  (1320) 
nan

>  <comRMSD>  (1320) 
nan

>  <N_unconstrained_atoms>  (1320) 
0.0

>  <∆∆G>  (1320) 
-3.897538

>  <runtime>  (1320) 
27.044941

>  <generation_date>  (1320) 
nan

$$$$
5CB5_0_L_γ-mArh-5l9k_B_0_B_γ
     RDKit          3D

  9  9  0  0  0  0  0  0  0  0999 V2000
   -0.5630   12.2560   -4.1700 O   0  0  0  0  0  0  0  0  0  0  0  0
   -0.0720   13.5550   -3.8660 C   0  0  2  0  0  0  0  0  0  0  0  0
   -1.1370   14.5100   -3.3470 C   0  0  2  0  0  0  0  0  0  0  0  0
    0.3940   14.2760   -5.1080 C   0  0  2  0  0  0  0  0  0  0  0  0
    1.6110   13.7000   -5.5470 O   0  0  0  0  0  0  0  0  0  0  0  0
   -2.3970   14.0700   -3.8380 O   0  0  0  0  0  0  0  0  0  0  0  0
   -0.7990   15.8150   -3.8590 O   0  0  0  0  0  0  0  0  0  0  0  0
    0.4700   15.6850   -4.5240 C   0  0  2  0  0  0  0  0  0  0  0  0
    0.6590   16.8280   -5.5100 C   0  0  0  0  0  0  0  0  0  0  0  0
  2  1  1  6
  2  3  1  0
  2  4  1  0
  4  5  1  1
  3  6  1  6
  3  7  1  0
  4  8  1  0
  7  8  1  0
  8  9  1  6
M  END
>  <%Rank>  (1321) 
nan

>  <N_hits>  (1321) 
2

>  <submitter_name>  (1321) 
nan

>  <original SMILES>  (1321) 
nan

>  <∆G_unbound>  (1321) 
0.027418

>  <∆G_bound>  (1321) 
-2.992867

>  <regarded>  (1321) 
5CB5_0_L_γ,mArh-5l9k_B_0_B_γ

>  <ref_pdb>  (1321) 
nan

>  <smiles>  (1321) 
CC1OC(O)C(O)C1O

>  <submitter_email>  (1321) 
nan

>  <disregarded>  (1321) 


>  <LE>  (1321) 
-0.335587

>  <submitter_institution>  (1321) 
nan

>  <ref_mols>  (1321) 
5CB5_0_L,mArh-5l9k_B_0_B

>  <N_constrained_atoms>  (1321) 
9.0

>  <ref_url>  (1321) 
nan

>  <method>  (1321) 
nan

>  <comRMSD>  (1321) 
nan

>  <N_unconstrained_atoms>  (1321) 
0.0

>  <∆∆G>  (1321) 
-3.020286

>  <runtime>  (1321) 
23.567911

>  <generation_date>  (1321) 
nan

$$$$
5CB5_0_G_γ-mArh-2fav_B_0_B_γ
     RDKit          3D

  8  8  0  0  0  0  0  0  0  0999 V2000
   -0.6450   12.4000   -3.8610 O   0  0  0  0  0  0  0  0  0  0  0  0
   -1.0110   13.7580   -4.1210 C   0  0  1  0  0  0  0  0  0  0  0  0
   -0.7470   14.6460   -2.9140 C   0  0  0  0  0  0  0  0  0  0  0  0
   -0.0720   14.3440   -5.1570 C   0  0  2  0  0  0  0  0  0  0  0  0
    1.2260   13.7740   -5.0440 O   0  0  0  0  0  0  0  0  0  0  0  0
   -0.1270   15.8610   -3.3930 O   0  0  0  0  0  0  0  0  0  0  0  0
   -0.2340   15.8290   -4.8220 C   0  0  1  0  0  0  0  0  0  0  0  0
    0.7140   16.8440   -5.4430 C   0  0  0  0  0  0  0  0  0  0  0  0
  2  1  1  1
  2  3  1  0
  2  4  1  0
  4  5  1  1
  3  6  1  0
  4  7  1  0
  6  7  1  0
  7  8  1  6
M  END
>  <%Rank>  (1322) 
nan

>  <N_hits>  (1322) 
2

>  <submitter_name>  (1322) 
nan

>  <original SMILES>  (1322) 
nan

>  <∆G_unbound>  (1322) 
0.021216

>  <∆G_bound>  (1322) 
-2.720569

>  <regarded>  (1322) 
5CB5_0_G_γ,mArh-2fav_B_0_B_γ

>  <ref_pdb>  (1322) 
nan

>  <smiles>  (1322) 
CC1OCC(O)C1O

>  <submitter_email>  (1322) 
nan

>  <disregarded>  (1322) 


>  <LE>  (1322) 
-0.342723

>  <submitter_institution>  (1322) 
nan

>  <ref_mols>  (1322) 
5CB5_0_G,mArh-2fav_B_0_B

>  <N_constrained_atoms>  (1322) 
8.0

>  <ref_url>  (1322) 
nan

>  <method>  (1322) 
nan

>  <comRMSD>  (1322) 
nan

>  <N_unconstrained_atoms>  (1322) 
0.0

>  <∆∆G>  (1322) 
-2.741785

>  <runtime>  (1322) 
19.072576

>  <generation_date>  (1322) 
nan

$$$$
mArh-5cb5_L_0_L_α-6MEA_0_A_α
     RDKit          3D

  9  9  0  0  0  0  0  0  0  0999 V2000
   -1.9980   22.0020   -8.1230 C   0  0  0  0  0  0  0  0  0  0  0  0
   -3.3460   22.2080   -8.7990 C   0  0  1  0  0  0  0  0  0  0  0  0
   -4.2690   21.2780   -8.2720 O   0  0  0  0  0  0  0  0  0  0  0  0
   -3.9360   23.5980   -8.6140 C   0  0  1  0  0  0  0  0  0  0  0  0
   -4.2080   24.2220   -9.8520 O   0  0  0  0  0  0  0  0  0  0  0  0
   -5.4070   21.9170   -7.7040 C   0  0  2  0  0  0  0  0  0  0  0  0
   -5.2800   23.4120   -7.9040 C   0  0  1  0  0  0  0  0  0  0  0  0
   -5.4430   21.5950   -6.3060 O   0  0  0  0  0  0  0  0  0  0  0  0
   -5.4120   24.1510   -6.6970 O   0  0  0  0  0  0  0  0  0  0  0  0
  2  1  1  1
  2  3  1  0
  2  4  1  0
  4  5  1  6
  3  6  1  0
  4  7  1  0
  6  7  1  0
  6  8  1  1
  7  9  1  1
M  END
>  <%Rank>  (1323) 
nan

>  <N_hits>  (1323) 
2

>  <submitter_name>  (1323) 
nan

>  <original SMILES>  (1323) 
nan

>  <∆G_unbound>  (1323) 
0.037019

>  <∆G_bound>  (1323) 
-6.115194

>  <regarded>  (1323) 
mArh-5cb5_L_0_L_α,6MEA_0_A_α

>  <ref_pdb>  (1323) 
nan

>  <smiles>  (1323) 
CC1OC(O)C(O)C1O

>  <submitter_email>  (1323) 
nan

>  <disregarded>  (1323) 


>  <LE>  (1323) 
-0.683579

>  <submitter_institution>  (1323) 
nan

>  <ref_mols>  (1323) 
mArh-5cb5_L_0_L,6MEA_0_A

>  <N_constrained_atoms>  (1323) 
9.0

>  <ref_url>  (1323) 
nan

>  <method>  (1323) 
nan

>  <comRMSD>  (1323) 
nan

>  <N_unconstrained_atoms>  (1323) 
0.0

>  <∆∆G>  (1323) 
-6.152213

>  <runtime>  (1323) 
20.100166

>  <generation_date>  (1323) 
nan

$$$$
2FAV_0_B_δ-6WOJ_0_A_δ
     RDKit          3D

 10 11  0  0  0  0  0  0  0  0999 V2000
   -4.1950   14.9000    1.4770 N   0  0  0  0  0  0  0  0  0  0  0  0
   -2.8850   14.9770    0.8580 C   0  0  2  0  0  0  0  0  0  0  0  0
   -2.8510   14.4660   -0.5930 C   0  0  2  0  0  0  0  0  0  0  0  0
   -2.0000   14.2200    1.7140 N   0  0  0  0  0  0  0  0  0  0  0  0
   -1.3820   14.4670   -0.9780 C   0  0  2  0  0  0  0  0  0  0  0  0
   -3.4300   15.2360   -1.6980 N   0  0  0  0  0  0  0  0  0  0  0  0
   -0.6270   14.1170    1.2290 C   0  0  0  0  0  0  0  0  0  0  0  0
   -1.4600   14.0690   -2.3590 N   0  0  0  0  0  0  0  0  0  0  0  0
   -2.6490   14.7680   -2.8550 C   0  0  0  0  0  0  0  0  0  0  0  0
   -0.5810   13.6260   -0.1450 N   0  0  0  0  0  0  0  0  0  0  0  0
  2  1  1  1
  2  3  1  0
  2  4  1  0
  3  5  1  0
  3  6  1  6
  4  7  1  0
  5  8  1  6
  6  9  1  0
  8  9  1  0
  5 10  1  0
  7 10  1  0
M  END
>  <%Rank>  (1324) 
nan

>  <N_hits>  (1324) 
2

>  <submitter_name>  (1324) 
nan

>  <original SMILES>  (1324) 
nan

>  <∆G_unbound>  (1324) 
0.213408

>  <∆G_bound>  (1324) 
-1.520886

>  <regarded>  (1324) 
2FAV_0_B_δ,6WOJ_0_A_δ

>  <ref_pdb>  (1324) 
nan

>  <smiles>  (1324) 
NC1NCNC2NCNC12

>  <submitter_email>  (1324) 
nan

>  <disregarded>  (1324) 


>  <LE>  (1324) 
-0.173429

>  <submitter_institution>  (1324) 
nan

>  <ref_mols>  (1324) 
2FAV_0_B,6WOJ_0_A

>  <N_constrained_atoms>  (1324) 
10.0

>  <ref_url>  (1324) 
nan

>  <method>  (1324) 
nan

>  <comRMSD>  (1324) 
nan

>  <N_unconstrained_atoms>  (1324) 
0.0

>  <∆∆G>  (1324) 
-1.734294

>  <runtime>  (1324) 
24.451873

>  <generation_date>  (1324) 
nan

$$$$
6MEA_0_B_γ-5L9K_0_B_γ
     RDKit          3D

  8  8  0  0  0  0  0  0  0  0999 V2000
   -0.9730   12.3930   -4.2670 O   0  0  0  0  0  0  0  0  0  0  0  0
   -1.0650   13.8090   -4.1950 C   0  0  1  0  0  0  0  0  0  0  0  0
   -0.6410   14.3700   -2.8390 C   0  0  0  0  0  0  0  0  0  0  0  0
   -0.0170   14.4140   -5.0810 C   0  0  2  0  0  0  0  0  0  0  0  0
    1.2090   13.6950   -4.9810 O   0  0  0  0  0  0  0  0  0  0  0  0
    0.0630   15.6100   -3.1090 O   0  0  0  0  0  0  0  0  0  0  0  0
   -0.0730   15.8300   -4.5240 C   0  0  1  0  0  0  0  0  0  0  0  0
    0.9050   16.8650   -5.0350 C   0  0  0  0  0  0  0  0  0  0  0  0
  2  1  1  1
  2  3  1  0
  2  4  1  0
  4  5  1  1
  3  6  1  0
  4  7  1  0
  6  7  1  0
  7  8  1  6
M  END
>  <%Rank>  (1325) 
nan

>  <N_hits>  (1325) 
2

>  <submitter_name>  (1325) 
nan

>  <original SMILES>  (1325) 
nan

>  <∆G_unbound>  (1325) 
0.021216

>  <∆G_bound>  (1325) 
-2.690153

>  <regarded>  (1325) 
6MEA_0_B_γ,5L9K_0_B_γ

>  <ref_pdb>  (1325) 
nan

>  <smiles>  (1325) 
CC1OCC(O)C1O

>  <submitter_email>  (1325) 
nan

>  <disregarded>  (1325) 


>  <LE>  (1325) 
-0.338921

>  <submitter_institution>  (1325) 
nan

>  <ref_mols>  (1325) 
6MEA_0_B,5L9K_0_B

>  <N_constrained_atoms>  (1325) 
8.0

>  <ref_url>  (1325) 
nan

>  <method>  (1325) 
nan

>  <comRMSD>  (1325) 
nan

>  <N_unconstrained_atoms>  (1325) 
0.0

>  <∆∆G>  (1325) 
-2.711369

>  <runtime>  (1325) 
22.301438

>  <generation_date>  (1325) 
nan

$$$$
5CB5_0_O_γ-mArh-5cms_B_1_B_γ
     RDKit          3D

  8  8  0  0  0  0  0  0  0  0999 V2000
   -0.5900   12.4700   -4.0410 O   0  0  0  0  0  0  0  0  0  0  0  0
   -0.8570   13.8660   -4.1750 C   0  0  1  0  0  0  0  0  0  0  0  0
   -0.5480   14.6470   -2.9020 C   0  0  0  0  0  0  0  0  0  0  0  0
    0.1130   14.4910   -5.1430 C   0  0  2  0  0  0  0  0  0  0  0  0
    1.4100   13.9200   -5.0410 O   0  0  0  0  0  0  0  0  0  0  0  0
    0.0330   15.9070   -3.3100 O   0  0  0  0  0  0  0  0  0  0  0  0
   -0.0680   15.9510   -4.7370 C   0  0  1  0  0  0  0  0  0  0  0  0
    0.8650   16.9920   -5.3260 C   0  0  0  0  0  0  0  0  0  0  0  0
  2  1  1  1
  2  3  1  0
  2  4  1  0
  4  5  1  1
  3  6  1  0
  4  7  1  0
  6  7  1  0
  7  8  1  6
M  END
>  <%Rank>  (1326) 
nan

>  <N_hits>  (1326) 
2

>  <submitter_name>  (1326) 
nan

>  <original SMILES>  (1326) 
nan

>  <∆G_unbound>  (1326) 
0.021216

>  <∆G_bound>  (1326) 
-2.800234

>  <regarded>  (1326) 
5CB5_0_O_γ,mArh-5cms_B_1_B_γ

>  <ref_pdb>  (1326) 
nan

>  <smiles>  (1326) 
CC1OCC(O)C1O

>  <submitter_email>  (1326) 
nan

>  <disregarded>  (1326) 


>  <LE>  (1326) 
-0.352681

>  <submitter_institution>  (1326) 
nan

>  <ref_mols>  (1326) 
5CB5_0_O,mArh-5cms_B_1_B

>  <N_constrained_atoms>  (1326) 
8.0

>  <ref_url>  (1326) 
nan

>  <method>  (1326) 
nan

>  <comRMSD>  (1326) 
nan

>  <N_unconstrained_atoms>  (1326) 
0.0

>  <∆∆G>  (1326) 
-2.821451

>  <runtime>  (1326) 
23.880668

>  <generation_date>  (1326) 
nan

$$$$
mArh-5cb5_B_0_B_γ-5CMS_0_B_γ
     RDKit          3D

  8  8  0  0  0  0  0  0  0  0999 V2000
   -0.6220   12.4700   -3.9290 O   0  0  0  0  0  0  0  0  0  0  0  0
   -0.9710   13.8440   -4.0640 C   0  0  1  0  0  0  0  0  0  0  0  0
   -0.5800   14.6650   -2.8400 C   0  0  0  0  0  0  0  0  0  0  0  0
   -0.1150   14.4700   -5.1360 C   0  0  2  0  0  0  0  0  0  0  0  0
    1.1850   13.8980   -5.1530 O   0  0  0  0  0  0  0  0  0  0  0  0
   -0.0270   15.9160   -3.3220 O   0  0  0  0  0  0  0  0  0  0  0  0
   -0.2250   15.9410   -4.7430 C   0  0  1  0  0  0  0  0  0  0  0  0
    0.7200   16.9400   -5.3920 C   0  0  0  0  0  0  0  0  0  0  0  0
  2  1  1  1
  2  3  1  0
  2  4  1  0
  4  5  1  1
  3  6  1  0
  4  7  1  0
  6  7  1  0
  7  8  1  6
M  END
>  <%Rank>  (1327) 
nan

>  <N_hits>  (1327) 
2

>  <submitter_name>  (1327) 
nan

>  <original SMILES>  (1327) 
nan

>  <∆G_unbound>  (1327) 
0.021216

>  <∆G_bound>  (1327) 
-2.702451

>  <regarded>  (1327) 
mArh-5cb5_B_0_B_γ,5CMS_0_B_γ

>  <ref_pdb>  (1327) 
nan

>  <smiles>  (1327) 
CC1OCC(O)C1O

>  <submitter_email>  (1327) 
nan

>  <disregarded>  (1327) 


>  <LE>  (1327) 
-0.340458

>  <submitter_institution>  (1327) 
nan

>  <ref_mols>  (1327) 
mArh-5cb5_B_0_B,5CMS_0_B

>  <N_constrained_atoms>  (1327) 
8.0

>  <ref_url>  (1327) 
nan

>  <method>  (1327) 
nan

>  <comRMSD>  (1327) 
nan

>  <N_unconstrained_atoms>  (1327) 
0.0

>  <∆∆G>  (1327) 
-2.723668

>  <runtime>  (1327) 
22.671581

>  <generation_date>  (1327) 
nan

$$$$
5CMS_0_A_γ-5CMS_0_E_δ
     RDKit          3D

 17 19  0  0  0  0  0  0  0  0999 V2000
   -1.2650   12.0380   -3.5560 O   0  0  0  0  0  0  0  0  0  0  0  0
   -0.5430   13.2420   -3.3420 C   0  0  2  0  0  0  0  0  0  0  0  0
   -1.2980   14.3940   -2.6300 C   0  0  2  0  0  0  0  0  0  0  0  0
   -0.0830   13.7840   -4.7040 C   0  0  2  0  0  0  0  0  0  0  0  0
    1.2970   13.5190   -4.9230 O   0  0  0  0  0  0  0  0  0  0  0  0
   -0.8100   15.5830   -3.3200 O   0  0  0  0  0  0  0  0  0  0  0  0
   -0.4850   15.2620   -4.6850 C   0  0  1  0  0  0  0  0  0  0  0  0
   -1.1570   14.6760   -1.0870 C   0  0  1  0  0  0  0  0  0  0  0  0
   -2.8530   14.2420   -2.7250 C   0  0  0  0  0  0  0  0  0  0  0  0
    0.5450   16.2610   -5.1930 C   0  0  0  0  0  0  0  0  0  0  0  0
   -2.6250   14.9960   -0.6590 C   0  0  1  0  0  0  0  0  0  0  0  0
   -3.3840   13.9760   -1.3530 N   0  0  0  0  0  0  0  0  0  0  0  0
   -0.4910   13.7640   -0.1600 N   0  0  0  0  0  0  0  0  0  0  0  0
   -0.4850   14.3130    1.1930 C   0  0  0  0  0  0  0  0  0  0  0  0
   -2.7200   15.2470    0.8940 C   0  0  1  0  0  0  0  0  0  0  0  0
   -4.0640   15.1450    1.4180 N   0  0  0  0  0  0  0  0  0  0  0  0
   -1.8380   14.4350    1.6950 N   0  0  0  0  0  0  0  0  0  0  0  0
  2  1  1  6
  2  3  1  0
  2  4  1  0
  4  5  1  1
  3  6  1  0
  4  7  1  0
  6  7  1  0
  3  8  1  0
  3  9  1  1
  7 10  1  1
  8 11  1  0
  9 12  1  0
 11 12  1  1
  8 13  1  1
 13 14  1  0
 11 15  1  0
 15 16  1  1
 14 17  1  0
 15 17  1  0
M  END
>  <%Rank>  (1328) 
nan

>  <N_hits>  (1328) 
2

>  <submitter_name>  (1328) 
nan

>  <original SMILES>  (1328) 
nan

>  <∆G_unbound>  (1328) 
0.631637

>  <∆G_bound>  (1328) 
-3.273508

>  <regarded>  (1328) 
5CMS_0_A_γ,5CMS_0_E_δ

>  <ref_pdb>  (1328) 
nan

>  <smiles>  (1328) 
CC1OC2(CNC3C(N)NCNC32)C(O)C1O

>  <submitter_email>  (1328) 
nan

>  <disregarded>  (1328) 


>  <LE>  (1328) 
-0.229714

>  <submitter_institution>  (1328) 
nan

>  <ref_mols>  (1328) 
5CMS_0_A,5CMS_0_E

>  <N_constrained_atoms>  (1328) 
17.0

>  <ref_url>  (1328) 
nan

>  <method>  (1328) 
nan

>  <comRMSD>  (1328) 
nan

>  <N_unconstrained_atoms>  (1328) 
0.0

>  <∆∆G>  (1328) 
-3.905144

>  <runtime>  (1328) 
31.452654

>  <generation_date>  (1328) 
nan

$$$$
6WOJ_0_A_γ-mArh-5cms_A_0_A_γ
     RDKit          3D

  8  8  0  0  0  0  0  0  0  0999 V2000
   -0.3600   12.1230   -4.3380 O   0  0  0  0  0  0  0  0  0  0  0  0
   -0.5270   13.5420   -4.3270 C   0  0  1  0  0  0  0  0  0  0  0  0
   -0.2080   14.1500   -2.9590 C   0  0  0  0  0  0  0  0  0  0  0  0
    0.5090   14.2470   -5.1680 C   0  0  2  0  0  0  0  0  0  0  0  0
    1.8000   13.6840   -4.9610 O   0  0  0  0  0  0  0  0  0  0  0  0
    0.3700   15.4560   -3.2070 O   0  0  0  0  0  0  0  0  0  0  0  0
    0.2220   15.6350   -4.6180 C   0  0  1  0  0  0  0  0  0  0  0  0
    0.9850   16.8380   -5.1330 C   0  0  0  0  0  0  0  0  0  0  0  0
  2  1  1  1
  2  3  1  0
  2  4  1  0
  4  5  1  1
  3  6  1  0
  4  7  1  0
  6  7  1  0
  7  8  1  6
M  END
>  <%Rank>  (1329) 
nan

>  <N_hits>  (1329) 
2

>  <submitter_name>  (1329) 
nan

>  <original SMILES>  (1329) 
nan

>  <∆G_unbound>  (1329) 
0.021216

>  <∆G_bound>  (1329) 
-2.979794

>  <regarded>  (1329) 
6WOJ_0_A_γ,mArh-5cms_A_0_A_γ

>  <ref_pdb>  (1329) 
nan

>  <smiles>  (1329) 
CC1OCC(O)C1O

>  <submitter_email>  (1329) 
nan

>  <disregarded>  (1329) 


>  <LE>  (1329) 
-0.375126

>  <submitter_institution>  (1329) 
nan

>  <ref_mols>  (1329) 
6WOJ_0_A,mArh-5cms_A_0_A

>  <N_constrained_atoms>  (1329) 
8.0

>  <ref_url>  (1329) 
nan

>  <method>  (1329) 
nan

>  <comRMSD>  (1329) 
nan

>  <N_unconstrained_atoms>  (1329) 
0.0

>  <∆∆G>  (1329) 
-3.001011

>  <runtime>  (1329) 
23.103548

>  <generation_date>  (1329) 
nan

$$$$
5CMS_0_F_δ-mArh-5dus_0_A_γ
     RDKit          3D

 17 19  0  0  0  0  0  0  0  0999 V2000
   -3.6260   15.3660    1.6860 N   0  0  0  0  0  0  0  0  0  0  0  0
   -2.5250   14.7270    0.9920 C   0  0  1  0  0  0  0  0  0  0  0  0
   -2.3850   15.1690   -0.4600 C   0  0  1  0  0  0  0  0  0  0  0  0
   -1.3420   15.1380    1.6840 N   0  0  0  0  0  0  0  0  0  0  0  0
   -1.1880   14.4200   -1.0350 C   0  0  1  0  0  0  0  0  0  0  0  0
   -3.4670   14.9020   -1.4040 N   0  0  0  0  0  0  0  0  0  0  0  0
   -0.1050   14.6070    1.1310 C   0  0  0  0  0  0  0  0  0  0  0  0
   -1.3110   14.7370   -2.5570 C   0  0  1  0  0  0  0  0  0  0  0  0
   -2.7730   15.2310   -2.6680 C   0  0  0  0  0  0  0  0  0  0  0  0
   -0.0030   14.8290   -0.3000 N   0  0  0  0  0  0  0  0  0  0  0  0
   -0.3470   15.7940   -2.8970 O   0  0  0  0  0  0  0  0  0  0  0  0
   -0.9950   13.6480   -3.6120 C   0  0  1  0  0  0  0  0  0  0  0  0
   -2.0720   12.8820   -4.1140 O   0  0  0  0  0  0  0  0  0  0  0  0
   -0.2740   15.8100   -4.3340 C   0  0  2  0  0  0  0  0  0  0  0  0
   -0.2760   14.3510   -4.7680 C   0  0  1  0  0  0  0  0  0  0  0  0
    0.9190   16.6040   -4.8220 C   0  0  0  0  0  0  0  0  0  0  0  0
    1.0060   13.7730   -4.9920 O   0  0  0  0  0  0  0  0  0  0  0  0
  2  1  1  1
  2  3  1  0
  2  4  1  0
  3  5  1  0
  3  6  1  6
  4  7  1  0
  5  8  1  0
  6  9  1  0
  8  9  1  1
  5 10  1  1
  7 10  1  0
  8 11  1  0
  8 12  1  0
 12 13  1  6
 11 14  1  0
 12 15  1  0
 14 15  1  0
 14 16  1  1
 15 17  1  1
M  END
>  <%Rank>  (1330) 
nan

>  <N_hits>  (1330) 
2

>  <submitter_name>  (1330) 
nan

>  <original SMILES>  (1330) 
nan

>  <∆G_unbound>  (1330) 
0.690665

>  <∆G_bound>  (1330) 
-2.85749

>  <regarded>  (1330) 
5CMS_0_F_δ,mArh-5dus_0_A_γ

>  <ref_pdb>  (1330) 
nan

>  <smiles>  (1330) 
CC1OC2(CNC3C(N)NCNC32)C(O)C1O

>  <submitter_email>  (1330) 
nan

>  <disregarded>  (1330) 


>  <LE>  (1330) 
-0.208715

>  <submitter_institution>  (1330) 
nan

>  <ref_mols>  (1330) 
5CMS_0_F,mArh-5dus_0_A

>  <N_constrained_atoms>  (1330) 
17.0

>  <ref_url>  (1330) 
nan

>  <method>  (1330) 
nan

>  <comRMSD>  (1330) 
nan

>  <N_unconstrained_atoms>  (1330) 
0.0

>  <∆∆G>  (1330) 
-3.548155

>  <runtime>  (1330) 
29.553859

>  <generation_date>  (1330) 
nan

$$$$
2BFQ_1_A_α-5CB5_0_R_α
     RDKit          3D

 10 10  0  0  0  0  0  0  0  0999 V2000
   -1.6430   22.2710   -7.7300 C   0  0  0  0  0  0  0  0  0  0  0  0
   -3.1050   22.4150   -8.1750 C   0  0  1  0  0  0  0  0  0  0  0  0
   -4.1010   21.5130   -7.5260 N   0  0  0  0  0  0  0  0  0  0  0  0
   -3.7160   23.8090   -7.8920 C   0  0  1  0  0  0  0  0  0  0  0  0
   -4.5630   24.2800   -8.9430 O   0  0  0  0  0  0  0  0  0  0  0  0
   -3.5950   20.9210   -6.3000 O   0  0  0  0  0  0  0  0  0  0  0  0
   -5.2470   22.3140   -7.1680 C   0  0  2  0  0  0  0  0  0  0  0  0
   -4.5230   23.5300   -6.6340 C   0  0  2  0  0  0  0  0  0  0  0  0
   -6.1070   21.7140   -6.2150 O   0  0  0  0  0  0  0  0  0  0  0  0
   -5.4050   24.5660   -6.2170 O   0  0  0  0  0  0  0  0  0  0  0  0
  2  1  1  1
  2  3  1  0
  2  4  1  0
  4  5  1  6
  3  6  1  0
  3  7  1  0
  4  8  1  0
  7  8  1  0
  7  9  1  1
  8 10  1  6
M  END
>  <%Rank>  (1331) 
nan

>  <N_hits>  (1331) 
2

>  <submitter_name>  (1331) 
nan

>  <original SMILES>  (1331) 
nan

>  <∆G_unbound>  (1331) 
0.073315

>  <∆G_bound>  (1331) 
-6.127958

>  <regarded>  (1331) 
2BFQ_1_A_α,5CB5_0_R_α

>  <ref_pdb>  (1331) 
nan

>  <smiles>  (1331) 
CC1C(O)C(O)C(O)N1O

>  <submitter_email>  (1331) 
nan

>  <disregarded>  (1331) 


>  <LE>  (1331) 
-0.620127

>  <submitter_institution>  (1331) 
nan

>  <ref_mols>  (1331) 
2BFQ_1_A,5CB5_0_R

>  <N_constrained_atoms>  (1331) 
10.0

>  <ref_url>  (1331) 
nan

>  <method>  (1331) 
nan

>  <comRMSD>  (1331) 
nan

>  <N_unconstrained_atoms>  (1331) 
0.0

>  <∆∆G>  (1331) 
-6.201272

>  <runtime>  (1331) 
26.138522

>  <generation_date>  (1331) 
nan

$$$$
mArh-6woj_C_0_C_α-5CMS_0_C_α
     RDKit          3D

 16 18  0  0  0  0  0  0  0  0999 V2000
   -2.6710   21.9640   -9.2020 C   0  0  0  0  0  0  0  0  0  0  0  0
   -3.6910   22.0220   -8.1700 C   0  0  1  0  0  0  0  0  0  0  0  0
   -3.6300   21.2700   -6.9930 O   0  0  0  0  0  0  0  0  0  0  0  0
   -3.5570   22.2920  -10.3430 C   0  0  1  0  0  0  0  0  0  0  0  0
   -3.7510   23.4570   -7.8090 C   0  0  1  0  0  0  0  0  0  0  0  0
   -4.4600   23.4640  -10.1550 N   0  0  0  0  0  0  0  0  0  0  0  0
   -2.9570   22.4150  -11.7490 C   0  0  2  0  0  0  0  0  0  0  0  0
   -4.5570   24.0770   -8.7950 O   0  0  0  0  0  0  0  0  0  0  0  0
   -1.6370   22.0580  -11.9430 O   0  0  0  0  0  0  0  0  0  0  0  0
   -4.7930   21.8930   -6.4520 C   0  0  2  0  0  0  0  0  0  0  0  0
   -4.4030   23.3800   -6.4410 C   0  0  2  0  0  0  0  0  0  0  0  0
   -3.5740   24.3860  -10.8000 C   0  0  0  0  0  0  0  0  0  0  0  0
   -3.2170   23.8640  -12.1080 C   0  0  1  0  0  0  0  0  0  0  0  0
   -5.1570   21.3490   -5.2140 O   0  0  0  0  0  0  0  0  0  0  0  0
   -5.5640   24.2260   -6.3290 O   0  0  0  0  0  0  0  0  0  0  0  0
   -2.0620   24.5750  -12.5560 O   0  0  0  0  0  0  0  0  0  0  0  0
  2  1  1  6
  2  3  1  0
  4  1  1  1
  2  5  1  0
  4  6  1  0
  4  7  1  0
  5  8  1  6
  6  8  1  0
  7  9  1  1
  3 10  1  0
  5 11  1  0
 10 11  1  0
  6 12  1  0
  7 13  1  0
 12 13  1  0
 10 14  1  1
 11 15  1  6
 13 16  1  1
M  END
>  <%Rank>  (1332) 
nan

>  <N_hits>  (1332) 
2

>  <submitter_name>  (1332) 
nan

>  <original SMILES>  (1332) 
nan

>  <∆G_unbound>  (1332) 
0.829627

>  <∆G_bound>  (1332) 
-4.633559

>  <regarded>  (1332) 
mArh-6woj_C_0_C_α,5CMS_0_C_α

>  <ref_pdb>  (1332) 
nan

>  <smiles>  (1332) 
OC1CN2OC3C(CC2C1O)OC(O)C3O

>  <submitter_email>  (1332) 
nan

>  <disregarded>  (1332) 


>  <LE>  (1332) 
-0.341449

>  <submitter_institution>  (1332) 
nan

>  <ref_mols>  (1332) 
mArh-6woj_C_0_C,5CMS_0_C

>  <N_constrained_atoms>  (1332) 
16.0

>  <ref_url>  (1332) 
nan

>  <method>  (1332) 
nan

>  <comRMSD>  (1332) 
nan

>  <N_unconstrained_atoms>  (1332) 
0.0

>  <∆∆G>  (1332) 
-5.463186

>  <runtime>  (1332) 
34.257375

>  <generation_date>  (1332) 
nan

$$$$
3Q6Z_0_A_α-5CMS_0_H_α
     RDKit          3D

 17 18  0  0  0  0  0  0  0  0999 V2000
   -2.0600   21.6070   -8.5090 C   0  0  0  0  0  0  0  0  0  0  0  0
   -3.5260   21.7760   -8.1530 C   0  0  2  0  0  0  0  0  0  0  0  0
   -3.9350   23.2380   -7.8310 C   0  0  1  0  0  0  0  0  0  0  0  0
   -1.7660   22.7470   -9.4450 C   0  0  2  0  0  0  0  0  0  0  0  0
   -3.8710   20.9880   -7.0090 O   0  0  0  0  0  0  0  0  0  0  0  0
   -2.2030   22.4520  -10.7600 O   0  0  0  0  0  0  0  0  0  0  0  0
   -0.4450   23.4510   -9.6260 C   0  0  1  0  0  0  0  0  0  0  0  0
   -4.9020   23.7820   -8.7410 O   0  0  0  0  0  0  0  0  0  0  0  0
    0.5770   22.6850  -10.2520 O   0  0  0  0  0  0  0  0  0  0  0  0
   -4.4890   23.1360   -6.4310 C   0  0  2  0  0  0  0  0  0  0  0  0
   -4.9610   21.6920   -6.4320 C   0  0  1  0  0  0  0  0  0  0  0  0
   -2.1720   23.7790  -11.2660 C   0  0  2  0  0  0  0  0  0  0  0  0
   -0.9420   24.4890  -10.6170 C   0  0  2  0  0  0  0  0  0  0  0  0
   -5.5710   24.0630   -6.2850 O   0  0  0  0  0  0  0  0  0  0  0  0
   -6.1370   21.5410   -7.2090 O   0  0  0  0  0  0  0  0  0  0  0  0
   -3.4320   24.3740  -10.9730 O   0  0  0  0  0  0  0  0  0  0  0  0
    0.0200   24.8940  -11.5660 O   0  0  0  0  0  0  0  0  0  0  0  0
  2  1  1  1
  2  3  1  0
  4  1  1  1
  2  5  1  0
  4  6  1  0
  4  7  1  0
  3  8  1  6
  7  9  1  6
  3 10  1  0
  5 11  1  0
 10 11  1  0
  6 12  1  0
  7 13  1  0
 12 13  1  0
 10 14  1  6
 11 15  1  6
 12 16  1  1
 13 17  1  6
M  END
>  <%Rank>  (1333) 
nan

>  <N_hits>  (1333) 
2

>  <submitter_name>  (1333) 
nan

>  <original SMILES>  (1333) 
nan

>  <∆G_unbound>  (1333) 
1.082033

>  <∆G_bound>  (1333) 
-4.010143

>  <regarded>  (1333) 
3Q6Z_0_A_α,5CMS_0_H_α

>  <ref_pdb>  (1333) 
nan

>  <smiles>  (1333) 
OC1OC(CC2OC(O)C(O)C2O)C(O)C1O

>  <submitter_email>  (1333) 
nan

>  <disregarded>  (1333) 


>  <LE>  (1333) 
-0.29954

>  <submitter_institution>  (1333) 
nan

>  <ref_mols>  (1333) 
3Q6Z_0_A,5CMS_0_H

>  <N_constrained_atoms>  (1333) 
17.0

>  <ref_url>  (1333) 
nan

>  <method>  (1333) 
nan

>  <comRMSD>  (1333) 
nan

>  <N_unconstrained_atoms>  (1333) 
0.0

>  <∆∆G>  (1333) 
-5.092177

>  <runtime>  (1333) 
35.238971

>  <generation_date>  (1333) 
nan

$$$$
5CMS_0_N_δ-5CB5_0_M_δ
     RDKit          3D

 10 11  0  0  0  0  0  0  0  0999 V2000
   -3.8160   14.9630    1.1390 N   0  0  0  0  0  0  0  0  0  0  0  0
   -2.5620   15.3230    0.5180 C   0  0  2  0  0  0  0  0  0  0  0  0
   -2.4110   14.7520   -0.8980 C   0  0  2  0  0  0  0  0  0  0  0  0
   -1.5100   14.8480    1.3880 N   0  0  0  0  0  0  0  0  0  0  0  0
   -1.0380   15.2130   -1.3320 C   0  0  2  0  0  0  0  0  0  0  0  0
   -3.2370   15.2200   -2.0110 N   0  0  0  0  0  0  0  0  0  0  0  0
   -0.1940   15.1760    0.8660 C   0  0  0  0  0  0  0  0  0  0  0  0
   -1.0110   14.7220   -2.6810 N   0  0  0  0  0  0  0  0  0  0  0  0
   -2.3440   15.0760   -3.1730 C   0  0  0  0  0  0  0  0  0  0  0  0
   -0.0030   14.6880   -0.4940 N   0  0  0  0  0  0  0  0  0  0  0  0
  2  1  1  1
  2  3  1  0
  2  4  1  0
  3  5  1  0
  3  6  1  6
  4  7  1  0
  5  8  1  6
  6  9  1  0
  8  9  1  0
  5 10  1  0
  7 10  1  0
M  END
>  <%Rank>  (1334) 
nan

>  <N_hits>  (1334) 
2

>  <submitter_name>  (1334) 
nan

>  <original SMILES>  (1334) 
nan

>  <∆G_unbound>  (1334) 
0.213408

>  <∆G_bound>  (1334) 
-1.320156

>  <regarded>  (1334) 
5CMS_0_N_δ,5CB5_0_M_δ

>  <ref_pdb>  (1334) 
nan

>  <smiles>  (1334) 
NC1NCNC2NCNC12

>  <submitter_email>  (1334) 
nan

>  <disregarded>  (1334) 


>  <LE>  (1334) 
-0.153356

>  <submitter_institution>  (1334) 
nan

>  <ref_mols>  (1334) 
5CMS_0_N,5CB5_0_M

>  <N_constrained_atoms>  (1334) 
10.0

>  <ref_url>  (1334) 
nan

>  <method>  (1334) 
nan

>  <comRMSD>  (1334) 
nan

>  <N_unconstrained_atoms>  (1334) 
0.0

>  <∆∆G>  (1334) 
-1.533564

>  <runtime>  (1334) 
24.158368

>  <generation_date>  (1334) 
nan

$$$$
5CMS_0_F_δ-5CMS_0_H_δ
     RDKit          3D

 10 11  0  0  0  0  0  0  0  0999 V2000
   -3.4050   15.0780    2.1120 N   0  0  0  0  0  0  0  0  0  0  0  0
   -2.3230   15.1410    1.1660 C   0  0  2  0  0  0  0  0  0  0  0  0
   -2.6860   14.5050   -0.1690 C   0  0  2  0  0  0  0  0  0  0  0  0
   -1.1740   14.5190    1.7750 N   0  0  0  0  0  0  0  0  0  0  0  0
   -1.3540   14.3170   -0.9100 C   0  0  1  0  0  0  0  0  0  0  0  0
   -3.5420   15.2490   -1.0920 N   0  0  0  0  0  0  0  0  0  0  0  0
    0.0070   14.5960    0.9620 C   0  0  0  0  0  0  0  0  0  0  0  0
   -1.6120   14.6830   -2.2820 N   0  0  0  0  0  0  0  0  0  0  0  0
   -3.0570   14.8070   -2.3890 C   0  0  0  0  0  0  0  0  0  0  0  0
   -0.2800   15.0790   -0.3570 N   0  0  0  0  0  0  0  0  0  0  0  0
  2  1  1  1
  2  3  1  0
  2  4  1  0
  3  5  1  0
  3  6  1  6
  4  7  1  0
  5  8  1  6
  6  9  1  0
  8  9  1  0
  5 10  1  0
  7 10  1  0
M  END
>  <%Rank>  (1335) 
nan

>  <N_hits>  (1335) 
2

>  <submitter_name>  (1335) 
nan

>  <original SMILES>  (1335) 
nan

>  <∆G_unbound>  (1335) 
0.213408

>  <∆G_bound>  (1335) 
-0.515911

>  <regarded>  (1335) 
5CMS_0_F_δ,5CMS_0_H_δ

>  <ref_pdb>  (1335) 
nan

>  <smiles>  (1335) 
NC1NCNC2NCNC12

>  <submitter_email>  (1335) 
nan

>  <disregarded>  (1335) 


>  <LE>  (1335) 
-0.072932

>  <submitter_institution>  (1335) 
nan

>  <ref_mols>  (1335) 
5CMS_0_F,5CMS_0_H

>  <N_constrained_atoms>  (1335) 
10.0

>  <ref_url>  (1335) 
nan

>  <method>  (1335) 
nan

>  <comRMSD>  (1335) 
nan

>  <N_unconstrained_atoms>  (1335) 
0.0

>  <∆∆G>  (1335) 
-0.729319

>  <runtime>  (1335) 
26.4984

>  <generation_date>  (1335) 
nan

$$$$
mArh-5cms_K_10_K_γ-6FX7_0_A_γ
     RDKit          3D

  8  8  0  0  0  0  0  0  0  0999 V2000
   -0.6800   12.1990   -4.0730 O   0  0  0  0  0  0  0  0  0  0  0  0
   -0.9190   13.5910   -4.2420 C   0  0  1  0  0  0  0  0  0  0  0  0
   -0.6450   14.3870   -2.9660 C   0  0  0  0  0  0  0  0  0  0  0  0
    0.1040   14.1790   -5.1860 C   0  0  2  0  0  0  0  0  0  0  0  0
    1.3780   13.5760   -4.9880 O   0  0  0  0  0  0  0  0  0  0  0  0
    0.0050   15.6160   -3.3650 O   0  0  0  0  0  0  0  0  0  0  0  0
   -0.0690   15.6460   -4.7960 C   0  0  1  0  0  0  0  0  0  0  0  0
    0.8690   16.6940   -5.3600 C   0  0  0  0  0  0  0  0  0  0  0  0
  2  1  1  1
  2  3  1  0
  2  4  1  0
  4  5  1  1
  3  6  1  0
  4  7  1  0
  6  7  1  0
  7  8  1  6
M  END
>  <%Rank>  (1336) 
nan

>  <N_hits>  (1336) 
2

>  <submitter_name>  (1336) 
nan

>  <original SMILES>  (1336) 
nan

>  <∆G_unbound>  (1336) 
0.021216

>  <∆G_bound>  (1336) 
-2.873697

>  <regarded>  (1336) 
mArh-5cms_K_10_K_γ,6FX7_0_A_γ

>  <ref_pdb>  (1336) 
nan

>  <smiles>  (1336) 
CC1OCC(O)C1O

>  <submitter_email>  (1336) 
nan

>  <disregarded>  (1336) 


>  <LE>  (1336) 
-0.361864

>  <submitter_institution>  (1336) 
nan

>  <ref_mols>  (1336) 
mArh-5cms_K_10_K,6FX7_0_A

>  <N_constrained_atoms>  (1336) 
8.0

>  <ref_url>  (1336) 
nan

>  <method>  (1336) 
nan

>  <comRMSD>  (1336) 
nan

>  <N_unconstrained_atoms>  (1336) 
0.0

>  <∆∆G>  (1336) 
-2.894914

>  <runtime>  (1336) 
24.077703

>  <generation_date>  (1336) 
nan

$$$$
5CB5_0_P_α-5CB5_0_N_α
     RDKit          3D

  9  9  0  0  0  0  0  0  0  0999 V2000
   -2.1490   21.9480   -8.7170 C   0  0  0  0  0  0  0  0  0  0  0  0
   -3.6200   22.2130   -8.9330 C   0  0  1  0  0  0  0  0  0  0  0  0
   -4.3230   21.3290   -8.0830 O   0  0  0  0  0  0  0  0  0  0  0  0
   -4.0520   23.6240   -8.5720 C   0  0  1  0  0  0  0  0  0  0  0  0
   -4.4190   24.3390   -9.7370 O   0  0  0  0  0  0  0  0  0  0  0  0
   -5.4400   21.9610   -7.4900 C   0  0  2  0  0  0  0  0  0  0  0  0
   -5.3040   23.4600   -7.7050 C   0  0  1  0  0  0  0  0  0  0  0  0
   -5.4290   21.6310   -6.0950 O   0  0  0  0  0  0  0  0  0  0  0  0
   -5.3030   24.2110   -6.4920 O   0  0  0  0  0  0  0  0  0  0  0  0
  2  1  1  1
  2  3  1  0
  2  4  1  0
  4  5  1  6
  3  6  1  0
  4  7  1  0
  6  7  1  0
  6  8  1  1
  7  9  1  1
M  END
>  <%Rank>  (1337) 
nan

>  <N_hits>  (1337) 
2

>  <submitter_name>  (1337) 
nan

>  <original SMILES>  (1337) 
nan

>  <∆G_unbound>  (1337) 
0.037019

>  <∆G_bound>  (1337) 
-6.220767

>  <regarded>  (1337) 
5CB5_0_P_α,5CB5_0_N_α

>  <ref_pdb>  (1337) 
nan

>  <smiles>  (1337) 
CC1OC(O)C(O)C1O

>  <submitter_email>  (1337) 
nan

>  <disregarded>  (1337) 


>  <LE>  (1337) 
-0.69531

>  <submitter_institution>  (1337) 
nan

>  <ref_mols>  (1337) 
5CB5_0_P,5CB5_0_N

>  <N_constrained_atoms>  (1337) 
9.0

>  <ref_url>  (1337) 
nan

>  <method>  (1337) 
nan

>  <comRMSD>  (1337) 
nan

>  <N_unconstrained_atoms>  (1337) 
0.0

>  <∆∆G>  (1337) 
-6.257786

>  <runtime>  (1337) 
32.78148

>  <generation_date>  (1337) 
nan

$$$$
5CB5_0_J_γ-mArh-5lw0_B_1_B_γ
     RDKit          3D

  8  8  0  0  0  0  0  0  0  0999 V2000
   -0.4500   12.4320   -3.8200 O   0  0  0  0  0  0  0  0  0  0  0  0
   -0.9060   13.7690   -4.0430 C   0  0  1  0  0  0  0  0  0  0  0  0
   -0.6380   14.6640   -2.8410 C   0  0  0  0  0  0  0  0  0  0  0  0
   -0.0660   14.4200   -5.1220 C   0  0  2  0  0  0  0  0  0  0  0  0
    1.2540   13.8860   -5.1430 O   0  0  0  0  0  0  0  0  0  0  0  0
   -0.1040   15.9120   -3.3290 O   0  0  0  0  0  0  0  0  0  0  0  0
   -0.2180   15.8970   -4.7570 C   0  0  1  0  0  0  0  0  0  0  0  0
    0.7480   16.8990   -5.3720 C   0  0  0  0  0  0  0  0  0  0  0  0
  2  1  1  1
  2  3  1  0
  2  4  1  0
  4  5  1  1
  3  6  1  0
  4  7  1  0
  6  7  1  0
  7  8  1  6
M  END
>  <%Rank>  (1338) 
nan

>  <N_hits>  (1338) 
2

>  <submitter_name>  (1338) 
nan

>  <original SMILES>  (1338) 
nan

>  <∆G_unbound>  (1338) 
0.021216

>  <∆G_bound>  (1338) 
-2.785813

>  <regarded>  (1338) 
5CB5_0_J_γ,mArh-5lw0_B_1_B_γ

>  <ref_pdb>  (1338) 
nan

>  <smiles>  (1338) 
CC1OCC(O)C1O

>  <submitter_email>  (1338) 
nan

>  <disregarded>  (1338) 


>  <LE>  (1338) 
-0.350879

>  <submitter_institution>  (1338) 
nan

>  <ref_mols>  (1338) 
5CB5_0_J,mArh-5lw0_B_1_B

>  <N_constrained_atoms>  (1338) 
8.0

>  <ref_url>  (1338) 
nan

>  <method>  (1338) 
nan

>  <comRMSD>  (1338) 
nan

>  <N_unconstrained_atoms>  (1338) 
0.0

>  <∆∆G>  (1338) 
-2.80703

>  <runtime>  (1338) 
24.671838

>  <generation_date>  (1338) 
nan

$$$$
5CB5_0_J_δ-5LW0_0_A_δ
     RDKit          3D

 10 11  0  0  0  0  0  0  0  0999 V2000
   -4.0830   15.1950    1.8050 N   0  0  0  0  0  0  0  0  0  0  0  0
   -2.9080   15.4490    0.9990 C   0  0  2  0  0  0  0  0  0  0  0  0
   -3.0060   14.8330   -0.3860 C   0  0  2  0  0  0  0  0  0  0  0  0
   -1.7460   14.9280    1.6870 N   0  0  0  0  0  0  0  0  0  0  0  0
   -1.7090   15.2520   -1.0390 C   0  0  2  0  0  0  0  0  0  0  0  0
   -3.9810   15.3100   -1.3630 N   0  0  0  0  0  0  0  0  0  0  0  0
   -0.4950   15.1760    0.9710 C   0  0  0  0  0  0  0  0  0  0  0  0
   -1.9020   14.7380   -2.3620 N   0  0  0  0  0  0  0  0  0  0  0  0
   -3.3000   15.0620   -2.6400 C   0  0  0  0  0  0  0  0  0  0  0  0
   -0.5560   14.7050   -0.3930 N   0  0  0  0  0  0  0  0  0  0  0  0
  2  1  1  1
  2  3  1  0
  2  4  1  0
  3  5  1  0
  3  6  1  6
  4  7  1  0
  5  8  1  6
  6  9  1  0
  8  9  1  0
  5 10  1  0
  7 10  1  0
M  END
>  <%Rank>  (1339) 
nan

>  <N_hits>  (1339) 
2

>  <submitter_name>  (1339) 
nan

>  <original SMILES>  (1339) 
nan

>  <∆G_unbound>  (1339) 
0.213408

>  <∆G_bound>  (1339) 
-1.439135

>  <regarded>  (1339) 
5CB5_0_J_δ,5LW0_0_A_δ

>  <ref_pdb>  (1339) 
nan

>  <smiles>  (1339) 
NC1NCNC2NCNC12

>  <submitter_email>  (1339) 
nan

>  <disregarded>  (1339) 


>  <LE>  (1339) 
-0.165254

>  <submitter_institution>  (1339) 
nan

>  <ref_mols>  (1339) 
5CB5_0_J,5LW0_0_A

>  <N_constrained_atoms>  (1339) 
10.0

>  <ref_url>  (1339) 
nan

>  <method>  (1339) 
nan

>  <comRMSD>  (1339) 
nan

>  <N_unconstrained_atoms>  (1339) 
0.0

>  <∆∆G>  (1339) 
-1.652543

>  <runtime>  (1339) 
38.141018

>  <generation_date>  (1339) 
nan

$$$$
5CB5_0_G_γ-2BFQ_1_A_γ
     RDKit          3D

  8  8  0  0  0  0  0  0  0  0999 V2000
   -0.6710   12.4250   -3.8790 O   0  0  0  0  0  0  0  0  0  0  0  0
   -1.0280   13.7800   -4.1300 C   0  0  1  0  0  0  0  0  0  0  0  0
   -0.7480   14.6710   -2.9260 C   0  0  0  0  0  0  0  0  0  0  0  0
   -0.0980   14.3610   -5.1690 C   0  0  2  0  0  0  0  0  0  0  0  0
    1.1940   13.7750   -5.0690 O   0  0  0  0  0  0  0  0  0  0  0  0
   -0.1410   15.8890   -3.4170 O   0  0  0  0  0  0  0  0  0  0  0  0
   -0.2370   15.8490   -4.8430 C   0  0  1  0  0  0  0  0  0  0  0  0
    0.7460   16.8340   -5.4570 C   0  0  0  0  0  0  0  0  0  0  0  0
  2  1  1  1
  2  3  1  0
  2  4  1  0
  4  5  1  1
  3  6  1  0
  4  7  1  0
  6  7  1  0
  7  8  1  6
M  END
>  <%Rank>  (1340) 
nan

>  <N_hits>  (1340) 
2

>  <submitter_name>  (1340) 
nan

>  <original SMILES>  (1340) 
nan

>  <∆G_unbound>  (1340) 
0.021216

>  <∆G_bound>  (1340) 
-2.685427

>  <regarded>  (1340) 
5CB5_0_G_γ,2BFQ_1_A_γ

>  <ref_pdb>  (1340) 
nan

>  <smiles>  (1340) 
CC1OCC(O)C1O

>  <submitter_email>  (1340) 
nan

>  <disregarded>  (1340) 


>  <LE>  (1340) 
-0.33833

>  <submitter_institution>  (1340) 
nan

>  <ref_mols>  (1340) 
5CB5_0_G,2BFQ_1_A

>  <N_constrained_atoms>  (1340) 
8.0

>  <ref_url>  (1340) 
nan

>  <method>  (1340) 
nan

>  <comRMSD>  (1340) 
nan

>  <N_unconstrained_atoms>  (1340) 
0.0

>  <∆∆G>  (1340) 
-2.706643

>  <runtime>  (1340) 
23.23132

>  <generation_date>  (1340) 
nan

$$$$
mArh-5cb5_P_0_P_γ-5CMS_0_D_γ
     RDKit          3D

 17 19  0  0  0  0  0  0  0  0999 V2000
   -1.4040   12.6160   -3.4520 O   0  0  0  0  0  0  0  0  0  0  0  0
   -0.6450   13.8130   -3.3300 C   0  0  2  0  0  0  0  0  0  0  0  0
   -1.3490   15.0110   -2.6590 C   0  0  2  0  0  0  0  0  0  0  0  0
   -0.2230   14.2930   -4.7210 C   0  0  2  0  0  0  0  0  0  0  0  0
    1.1110   13.9000   -5.0160 O   0  0  0  0  0  0  0  0  0  0  0  0
   -0.7930   16.1740   -3.3370 O   0  0  0  0  0  0  0  0  0  0  0  0
   -0.4710   15.8070   -4.6990 C   0  0  1  0  0  0  0  0  0  0  0  0
   -1.2020   15.2490   -1.1170 C   0  0  1  0  0  0  0  0  0  0  0  0
   -2.9010   14.9480   -2.8080 C   0  0  0  0  0  0  0  0  0  0  0  0
    0.6670   16.6840   -5.2090 C   0  0  0  0  0  0  0  0  0  0  0  0
   -2.6560   15.5570   -0.6780 C   0  0  1  0  0  0  0  0  0  0  0  0
   -3.4860   14.6710   -1.4730 N   0  0  0  0  0  0  0  0  0  0  0  0
   -0.5130   14.2780   -0.2670 N   0  0  0  0  0  0  0  0  0  0  0  0
   -0.5330   14.7320    1.1070 C   0  0  0  0  0  0  0  0  0  0  0  0
   -2.7980   15.5870    0.8730 C   0  0  1  0  0  0  0  0  0  0  0  0
   -4.1550   15.3600    1.3560 N   0  0  0  0  0  0  0  0  0  0  0  0
   -1.8900   14.7340    1.6110 N   0  0  0  0  0  0  0  0  0  0  0  0
  2  1  1  6
  2  3  1  0
  2  4  1  0
  4  5  1  1
  3  6  1  0
  4  7  1  0
  6  7  1  0
  3  8  1  0
  3  9  1  1
  7 10  1  1
  8 11  1  0
  9 12  1  0
 11 12  1  6
  8 13  1  1
 13 14  1  0
 11 15  1  0
 15 16  1  6
 14 17  1  0
 15 17  1  0
M  END
>  <%Rank>  (1341) 
nan

>  <N_hits>  (1341) 
2

>  <submitter_name>  (1341) 
nan

>  <original SMILES>  (1341) 
nan

>  <∆G_unbound>  (1341) 
0.631637

>  <∆G_bound>  (1341) 
-3.632073

>  <regarded>  (1341) 
mArh-5cb5_P_0_P_γ,5CMS_0_D_γ

>  <ref_pdb>  (1341) 
nan

>  <smiles>  (1341) 
CC1OC2(CNC3C(N)NCNC32)C(O)C1O

>  <submitter_email>  (1341) 
nan

>  <disregarded>  (1341) 


>  <LE>  (1341) 
-0.250806

>  <submitter_institution>  (1341) 
nan

>  <ref_mols>  (1341) 
mArh-5cb5_P_0_P,5CMS_0_D

>  <N_constrained_atoms>  (1341) 
17.0

>  <ref_url>  (1341) 
nan

>  <method>  (1341) 
nan

>  <comRMSD>  (1341) 
nan

>  <N_unconstrained_atoms>  (1341) 
0.0

>  <∆∆G>  (1341) 
-4.263709

>  <runtime>  (1341) 
28.724652

>  <generation_date>  (1341) 
nan

$$$$
6WOJ_0_A_α-5CMS_0_Q_α
     RDKit          3D

 17 18  0  0  0  0  0  0  0  0999 V2000
   -1.6480   21.9560   -7.9970 C   0  0  0  0  0  0  0  0  0  0  0  0
   -3.1480   21.9920   -7.8410 C   0  0  1  0  0  0  0  0  0  0  0  0
   -3.6840   21.2050   -6.7800 O   0  0  0  0  0  0  0  0  0  0  0  0
   -1.6640   22.5720   -9.3480 C   0  0  2  0  0  0  0  0  0  0  0  0
   -3.6280   23.4470   -7.6610 C   0  0  1  0  0  0  0  0  0  0  0  0
   -1.8720   21.5930  -10.3350 O   0  0  0  0  0  0  0  0  0  0  0  0
   -0.7650   23.6230   -9.9360 C   0  0  1  0  0  0  0  0  0  0  0  0
   -4.5000   23.9130   -8.7160 O   0  0  0  0  0  0  0  0  0  0  0  0
    0.4550   23.1520  -10.4890 O   0  0  0  0  0  0  0  0  0  0  0  0
   -4.8970   21.8920   -6.5250 C   0  0  2  0  0  0  0  0  0  0  0  0
   -4.4380   23.3370   -6.3970 C   0  0  2  0  0  0  0  0  0  0  0  0
   -2.2290   22.4490  -11.3960 C   0  0  2  0  0  0  0  0  0  0  0  0
   -1.8520   23.8900  -10.9740 C   0  0  2  0  0  0  0  0  0  0  0  0
   -5.4760   21.4150   -5.3380 O   0  0  0  0  0  0  0  0  0  0  0  0
   -5.4930   24.2840   -6.3380 O   0  0  0  0  0  0  0  0  0  0  0  0
   -3.6210   22.3720  -11.6470 O   0  0  0  0  0  0  0  0  0  0  0  0
   -1.5070   24.7650  -12.0380 O   0  0  0  0  0  0  0  0  0  0  0  0
  2  1  1  1
  2  3  1  0
  4  1  1  1
  2  5  1  0
  4  6  1  0
  4  7  1  0
  5  8  1  6
  7  9  1  6
  3 10  1  0
  5 11  1  0
 10 11  1  0
  6 12  1  0
  7 13  1  0
 12 13  1  0
 10 14  1  1
 11 15  1  6
 12 16  1  1
 13 17  1  6
M  END
>  <%Rank>  (1342) 
nan

>  <N_hits>  (1342) 
2

>  <submitter_name>  (1342) 
nan

>  <original SMILES>  (1342) 
nan

>  <∆G_unbound>  (1342) 
0.708369

>  <∆G_bound>  (1342) 
-6.777109

>  <regarded>  (1342) 
6WOJ_0_A_α,5CMS_0_Q_α

>  <ref_pdb>  (1342) 
nan

>  <smiles>  (1342) 
OC1OC(CC2OC(O)C(O)C2O)C(O)C1O

>  <submitter_email>  (1342) 
nan

>  <disregarded>  (1342) 


>  <LE>  (1342) 
-0.440322

>  <submitter_institution>  (1342) 
nan

>  <ref_mols>  (1342) 
6WOJ_0_A,5CMS_0_Q

>  <N_constrained_atoms>  (1342) 
17.0

>  <ref_url>  (1342) 
nan

>  <method>  (1342) 
nan

>  <comRMSD>  (1342) 
nan

>  <N_unconstrained_atoms>  (1342) 
0.0

>  <∆∆G>  (1342) 
-7.485479

>  <runtime>  (1342) 
44.820175

>  <generation_date>  (1342) 
nan

$$$$
4IQY_0_B_δ-5CMS_0_K_γ
     RDKit          3D

 17 19  0  0  0  0  0  0  0  0999 V2000
   -3.8670   15.5100    1.6640 N   0  0  0  0  0  0  0  0  0  0  0  0
   -2.7770   14.8420    0.9670 C   0  0  1  0  0  0  0  0  0  0  0  0
   -2.6060   15.2410   -0.5120 C   0  0  1  0  0  0  0  0  0  0  0  0
   -1.5840   15.2140    1.6870 N   0  0  0  0  0  0  0  0  0  0  0  0
   -1.3380   14.5360   -1.0090 C   0  0  1  0  0  0  0  0  0  0  0  0
   -3.6240   14.8460   -1.4900 N   0  0  0  0  0  0  0  0  0  0  0  0
   -0.3690   14.6130    1.1550 C   0  0  0  0  0  0  0  0  0  0  0  0
   -1.3910   14.6980   -2.5690 C   0  0  1  0  0  0  0  0  0  0  0  0
   -2.8950   15.0400   -2.7730 C   0  0  0  0  0  0  0  0  0  0  0  0
   -0.2100   15.0080   -0.2270 N   0  0  0  0  0  0  0  0  0  0  0  0
   -0.5150   15.8030   -3.0190 O   0  0  0  0  0  0  0  0  0  0  0  0
   -0.8720   13.5340   -3.4710 C   0  0  1  0  0  0  0  0  0  0  0  0
   -1.7700   12.5100   -3.8530 O   0  0  0  0  0  0  0  0  0  0  0  0
   -0.3780   15.6580   -4.4530 C   0  0  2  0  0  0  0  0  0  0  0  0
   -0.2280   14.1640   -4.7180 C   0  0  1  0  0  0  0  0  0  0  0  0
    0.7410   16.5170   -5.0230 C   0  0  0  0  0  0  0  0  0  0  0  0
    1.1090   13.6930   -4.8940 O   0  0  0  0  0  0  0  0  0  0  0  0
  2  1  1  1
  2  3  1  0
  2  4  1  0
  3  5  1  0
  3  6  1  6
  4  7  1  0
  5  8  1  0
  6  9  1  0
  8  9  1  6
  5 10  1  1
  7 10  1  0
  8 11  1  0
  8 12  1  0
 12 13  1  6
 11 14  1  0
 12 15  1  0
 14 15  1  0
 14 16  1  1
 15 17  1  1
M  END
>  <%Rank>  (1343) 
nan

>  <N_hits>  (1343) 
2

>  <submitter_name>  (1343) 
nan

>  <original SMILES>  (1343) 
nan

>  <∆G_unbound>  (1343) 
0.690665

>  <∆G_bound>  (1343) 
-3.278027

>  <regarded>  (1343) 
4IQY_0_B_δ,5CMS_0_K_γ

>  <ref_pdb>  (1343) 
nan

>  <smiles>  (1343) 
CC1OC2(CNC3C(N)NCNC32)C(O)C1O

>  <submitter_email>  (1343) 
nan

>  <disregarded>  (1343) 


>  <LE>  (1343) 
-0.233452

>  <submitter_institution>  (1343) 
nan

>  <ref_mols>  (1343) 
4IQY_0_B,5CMS_0_K

>  <N_constrained_atoms>  (1343) 
17.0

>  <ref_url>  (1343) 
nan

>  <method>  (1343) 
nan

>  <comRMSD>  (1343) 
nan

>  <N_unconstrained_atoms>  (1343) 
0.0

>  <∆∆G>  (1343) 
-3.968692

>  <runtime>  (1343) 
29.896677

>  <generation_date>  (1343) 
nan

$$$$
5CMS_0_I_α-mArh-5cms_J_9_J_α
     RDKit          3D

  9  9  0  0  0  0  0  0  0  0999 V2000
   -1.6950   21.3070   -8.0460 C   0  0  0  0  0  0  0  0  0  0  0  0
   -2.7330   21.7530   -9.0580 C   0  0  1  0  0  0  0  0  0  0  0  0
   -4.1070   21.4470   -8.7270 O   0  0  0  0  0  0  0  0  0  0  0  0
   -2.9320   23.2130   -9.0910 C   0  0  1  0  0  0  0  0  0  0  0  0
   -1.7750   23.9810   -9.0740 O   0  0  0  0  0  0  0  0  0  0  0  0
   -4.9140   22.4650   -9.4010 C   0  0  2  0  0  0  0  0  0  0  0  0
   -3.9450   23.2280  -10.2430 C   0  0  2  0  0  0  0  0  0  0  0  0
   -5.4300   23.4190   -8.4890 O   0  0  0  0  0  0  0  0  0  0  0  0
   -3.7650   22.4320  -11.4130 O   0  0  0  0  0  0  0  0  0  0  0  0
  2  1  1  1
  2  3  1  0
  2  4  1  0
  4  5  1  6
  3  6  1  0
  4  7  1  0
  6  7  1  0
  6  8  1  1
  7  9  1  6
M  END
>  <%Rank>  (1344) 
nan

>  <N_hits>  (1344) 
2

>  <submitter_name>  (1344) 
nan

>  <original SMILES>  (1344) 
nan

>  <∆G_unbound>  (1344) 
0.037019

>  <∆G_bound>  (1344) 
-1.626573

>  <regarded>  (1344) 
5CMS_0_I_α,mArh-5cms_J_9_J_α

>  <ref_pdb>  (1344) 
nan

>  <smiles>  (1344) 
CC1OC(O)C(O)C1O

>  <submitter_email>  (1344) 
nan

>  <disregarded>  (1344) 


>  <LE>  (1344) 
-0.184844

>  <submitter_institution>  (1344) 
nan

>  <ref_mols>  (1344) 
5CMS_0_I,mArh-5cms_J_9_J

>  <N_constrained_atoms>  (1344) 
9.0

>  <ref_url>  (1344) 
nan

>  <method>  (1344) 
nan

>  <comRMSD>  (1344) 
nan

>  <N_unconstrained_atoms>  (1344) 
0.0

>  <∆∆G>  (1344) 
-1.663592

>  <runtime>  (1344) 
27.429435

>  <generation_date>  (1344) 
nan

$$$$
5CB5_0_C_γ-6WOJ_0_A_δ
     RDKit          3D

 17 19  0  0  0  0  0  0  0  0999 V2000
   -1.1230   12.3150   -3.7610 O   0  0  0  0  0  0  0  0  0  0  0  0
   -0.4250   13.5310   -3.5650 C   0  0  2  0  0  0  0  0  0  0  0  0
   -1.1700   14.6240   -2.8000 C   0  0  2  0  0  0  0  0  0  0  0  0
   -0.0680   14.1610   -4.9180 C   0  0  2  0  0  0  0  0  0  0  0  0
    1.2780   13.8760   -5.2540 O   0  0  0  0  0  0  0  0  0  0  0  0
   -0.5700   15.8360   -3.3390 O   0  0  0  0  0  0  0  0  0  0  0  0
   -0.4000   15.6440   -4.7510 C   0  0  1  0  0  0  0  0  0  0  0  0
   -1.1520   14.6860   -1.2320 C   0  0  1  0  0  0  0  0  0  0  0  0
   -2.7020   14.5520   -3.0640 C   0  0  0  0  0  0  0  0  0  0  0  0
    0.6210   16.6570   -5.2710 C   0  0  0  0  0  0  0  0  0  0  0  0
   -2.6470   14.9540   -0.9070 C   0  0  1  0  0  0  0  0  0  0  0  0
   -3.3410   14.0620   -1.8140 N   0  0  0  0  0  0  0  0  0  0  0  0
   -0.5830   13.6450   -0.3760 N   0  0  0  0  0  0  0  0  0  0  0  0
   -0.6200   14.0950    1.0130 C   0  0  0  0  0  0  0  0  0  0  0  0
   -2.9020   14.9920    0.6340 C   0  0  1  0  0  0  0  0  0  0  0  0
   -4.2340   14.5560    0.9880 N   0  0  0  0  0  0  0  0  0  0  0  0
   -1.9860   14.2490    1.4820 N   0  0  0  0  0  0  0  0  0  0  0  0
  2  1  1  6
  2  3  1  0
  2  4  1  0
  4  5  1  1
  3  6  1  0
  4  7  1  0
  6  7  1  0
  3  8  1  0
  3  9  1  6
  7 10  1  1
  8 11  1  0
  9 12  1  0
 11 12  1  6
  8 13  1  1
 13 14  1  0
 11 15  1  0
 15 16  1  6
 14 17  1  0
 15 17  1  0
M  END
>  <%Rank>  (1345) 
nan

>  <N_hits>  (1345) 
2

>  <submitter_name>  (1345) 
nan

>  <original SMILES>  (1345) 
nan

>  <∆G_unbound>  (1345) 
0.631637

>  <∆G_bound>  (1345) 
-3.710132

>  <regarded>  (1345) 
5CB5_0_C_γ,6WOJ_0_A_δ

>  <ref_pdb>  (1345) 
nan

>  <smiles>  (1345) 
CC1OC2(CNC3C(N)NCNC32)C(O)C1O

>  <submitter_email>  (1345) 
nan

>  <disregarded>  (1345) 


>  <LE>  (1345) 
-0.255398

>  <submitter_institution>  (1345) 
nan

>  <ref_mols>  (1345) 
5CB5_0_C,6WOJ_0_A

>  <N_constrained_atoms>  (1345) 
17.0

>  <ref_url>  (1345) 
nan

>  <method>  (1345) 
nan

>  <comRMSD>  (1345) 
nan

>  <N_unconstrained_atoms>  (1345) 
0.0

>  <∆∆G>  (1345) 
-4.341769

>  <runtime>  (1345) 
32.45476

>  <generation_date>  (1345) 
nan

$$$$
5L9K_0_A_α-5CB3_0_A_α
     RDKit          3D

 10 10  0  0  0  0  0  0  0  0999 V2000
   -2.2360   22.5190   -8.0740 C   0  0  0  0  0  0  0  0  0  0  0  0
   -3.6510   22.0320   -8.3480 C   0  0  1  0  0  0  0  0  0  0  0  0
   -4.2930   21.3810   -7.1800 N   0  0  0  0  0  0  0  0  0  0  0  0
   -4.7210   23.1050   -8.6380 C   0  0  2  0  0  0  0  0  0  0  0  0
   -4.3600   24.1860   -9.4560 O   0  0  0  0  0  0  0  0  0  0  0  0
   -3.4630   21.2170   -6.0120 O   0  0  0  0  0  0  0  0  0  0  0  0
   -5.4700   22.1010   -6.7940 C   0  0  1  0  0  0  0  0  0  0  0  0
   -5.0850   23.4970   -7.2160 C   0  0  2  0  0  0  0  0  0  0  0  0
   -6.5760   21.6060   -7.5260 O   0  0  0  0  0  0  0  0  0  0  0  0
   -6.1780   24.3860   -7.0970 O   0  0  0  0  0  0  0  0  0  0  0  0
  2  1  1  1
  2  3  1  0
  2  4  1  0
  4  5  1  6
  3  6  1  0
  3  7  1  0
  4  8  1  0
  7  8  1  0
  7  9  1  6
  8 10  1  6
M  END
>  <%Rank>  (1346) 
nan

>  <N_hits>  (1346) 
2

>  <submitter_name>  (1346) 
nan

>  <original SMILES>  (1346) 
nan

>  <∆G_unbound>  (1346) 
0.073315

>  <∆G_bound>  (1346) 
-4.10096

>  <regarded>  (1346) 
5L9K_0_A_α,5CB3_0_A_α

>  <ref_pdb>  (1346) 
nan

>  <smiles>  (1346) 
CC1C(O)C(O)C(O)N1O

>  <submitter_email>  (1346) 
nan

>  <disregarded>  (1346) 


>  <LE>  (1346) 
-0.417428

>  <submitter_institution>  (1346) 
nan

>  <ref_mols>  (1346) 
5L9K_0_A,5CB3_0_A

>  <N_constrained_atoms>  (1346) 
10.0

>  <ref_url>  (1346) 
nan

>  <method>  (1346) 
nan

>  <comRMSD>  (1346) 
nan

>  <N_unconstrained_atoms>  (1346) 
0.0

>  <∆∆G>  (1346) 
-4.174275

>  <runtime>  (1346) 
27.114535

>  <generation_date>  (1346) 
nan

$$$$
5CMS_0_M_δ-5CMS_0_E_δ
     RDKit          3D

 10 11  0  0  0  0  0  0  0  0999 V2000
   -4.0030   15.5170    1.7330 N   0  0  0  0  0  0  0  0  0  0  0  0
   -2.7860   15.4600    0.9430 C   0  0  2  0  0  0  0  0  0  0  0  0
   -2.9530   14.7710   -0.3930 C   0  0  2  0  0  0  0  0  0  0  0  0
   -1.7190   14.8410    1.7010 N   0  0  0  0  0  0  0  0  0  0  0  0
   -1.6270   15.0700   -1.0490 C   0  0  2  0  0  0  0  0  0  0  0  0
   -3.9040   15.2770   -1.3800 N   0  0  0  0  0  0  0  0  0  0  0  0
   -0.4280   14.8490    1.0080 C   0  0  0  0  0  0  0  0  0  0  0  0
   -1.8680   14.5560   -2.3660 N   0  0  0  0  0  0  0  0  0  0  0  0
   -3.2380   14.9910   -2.6540 C   0  0  0  0  0  0  0  0  0  0  0  0
   -0.5260   14.4340   -0.3830 N   0  0  0  0  0  0  0  0  0  0  0  0
  2  1  1  1
  2  3  1  0
  2  4  1  0
  3  5  1  0
  3  6  1  6
  4  7  1  0
  5  8  1  6
  6  9  1  0
  8  9  1  0
  5 10  1  0
  7 10  1  0
M  END
>  <%Rank>  (1347) 
nan

>  <N_hits>  (1347) 
2

>  <submitter_name>  (1347) 
nan

>  <original SMILES>  (1347) 
nan

>  <∆G_unbound>  (1347) 
0.213408

>  <∆G_bound>  (1347) 
-1.506121

>  <regarded>  (1347) 
5CMS_0_M_δ,5CMS_0_E_δ

>  <ref_pdb>  (1347) 
nan

>  <smiles>  (1347) 
NC1NCNC2NCNC12

>  <submitter_email>  (1347) 
nan

>  <disregarded>  (1347) 


>  <LE>  (1347) 
-0.171953

>  <submitter_institution>  (1347) 
nan

>  <ref_mols>  (1347) 
5CMS_0_M,5CMS_0_E

>  <N_constrained_atoms>  (1347) 
10.0

>  <ref_url>  (1347) 
nan

>  <method>  (1347) 
nan

>  <comRMSD>  (1347) 
nan

>  <N_unconstrained_atoms>  (1347) 
0.0

>  <∆∆G>  (1347) 
-1.71953

>  <runtime>  (1347) 
26.921626

>  <generation_date>  (1347) 
nan

$$$$
5CMS_0_O_δ-mArh-5cb5_C_0_C_γ
     RDKit          3D

 17 19  0  0  0  0  0  0  0  0999 V2000
   -3.7510   15.4760    1.6010 N   0  0  0  0  0  0  0  0  0  0  0  0
   -2.6570   14.8200    0.9050 C   0  0  1  0  0  0  0  0  0  0  0  0
   -2.4930   15.2670   -0.5600 C   0  0  1  0  0  0  0  0  0  0  0  0
   -1.4730   15.1710    1.6490 N   0  0  0  0  0  0  0  0  0  0  0  0
   -1.2330   14.5900   -1.0770 C   0  0  1  0  0  0  0  0  0  0  0  0
   -3.5280   14.8910   -1.5330 N   0  0  0  0  0  0  0  0  0  0  0  0
   -0.2410   14.6320    1.0950 C   0  0  0  0  0  0  0  0  0  0  0  0
   -1.3040   14.8350   -2.6170 C   0  0  1  0  0  0  0  0  0  0  0  0
   -2.8240   15.0440   -2.8310 C   0  0  0  0  0  0  0  0  0  0  0  0
   -0.0960   15.0250   -0.2930 N   0  0  0  0  0  0  0  0  0  0  0  0
   -0.5560   16.0390   -3.0320 O   0  0  0  0  0  0  0  0  0  0  0  0
   -0.6660   13.7680   -3.5290 C   0  0  1  0  0  0  0  0  0  0  0  0
   -1.3770   12.5730   -3.7820 O   0  0  0  0  0  0  0  0  0  0  0  0
   -0.4710   15.9670   -4.4760 C   0  0  2  0  0  0  0  0  0  0  0  0
   -0.2900   14.4850   -4.8240 C   0  0  1  0  0  0  0  0  0  0  0  0
    0.6090   16.8750   -5.0470 C   0  0  0  0  0  0  0  0  0  0  0  0
    1.0300   14.1180   -5.2110 O   0  0  0  0  0  0  0  0  0  0  0  0
  2  1  1  1
  2  3  1  0
  2  4  1  0
  3  5  1  0
  3  6  1  6
  4  7  1  0
  5  8  1  0
  6  9  1  0
  8  9  1  6
  5 10  1  1
  7 10  1  0
  8 11  1  0
  8 12  1  0
 12 13  1  6
 11 14  1  0
 12 15  1  0
 14 15  1  0
 14 16  1  1
 15 17  1  1
M  END
>  <%Rank>  (1348) 
nan

>  <N_hits>  (1348) 
2

>  <submitter_name>  (1348) 
nan

>  <original SMILES>  (1348) 
nan

>  <∆G_unbound>  (1348) 
0.690665

>  <∆G_bound>  (1348) 
-3.210624

>  <regarded>  (1348) 
5CMS_0_O_δ,mArh-5cb5_C_0_C_γ

>  <ref_pdb>  (1348) 
nan

>  <smiles>  (1348) 
CC1OC2(CNC3C(N)NCNC32)C(O)C1O

>  <submitter_email>  (1348) 
nan

>  <disregarded>  (1348) 


>  <LE>  (1348) 
-0.229488

>  <submitter_institution>  (1348) 
nan

>  <ref_mols>  (1348) 
5CMS_0_O,mArh-5cb5_C_0_C

>  <N_constrained_atoms>  (1348) 
17.0

>  <ref_url>  (1348) 
nan

>  <method>  (1348) 
nan

>  <comRMSD>  (1348) 
nan

>  <N_unconstrained_atoms>  (1348) 
0.0

>  <∆∆G>  (1348) 
-3.901289

>  <runtime>  (1348) 
29.91552

>  <generation_date>  (1348) 
nan

$$$$
mArh-6woj_A_0_A_γ-5L9K_0_A_δ
     RDKit          3D

 19 21  0  0  0  0  0  0  0  0999 V2000
   -1.0080   12.6930   -4.9620 O   0  0  0  0  0  0  0  0  0  0  0  0
    0.0440   13.3040   -4.2160 C   0  0  2  0  0  0  0  0  0  0  0  0
   -0.4380   14.2950   -3.1620 C   0  0  2  0  0  0  0  0  0  0  0  0
    0.9400   14.1140   -5.1330 C   0  0  2  0  0  0  0  0  0  0  0  0
    2.0890   13.3280   -5.3980 O   0  0  0  0  0  0  0  0  0  0  0  0
   -1.9490   14.5850   -3.2940 C   0  0  0  0  0  0  0  0  0  0  0  0
    0.3940   15.4760   -3.2340 O   0  0  0  0  0  0  0  0  0  0  0  0
    1.1910   15.4560   -4.4220 C   0  0  2  0  0  0  0  0  0  0  0  0
    0.8690   16.7220   -5.2100 C   0  0  0  0  0  0  0  0  0  0  0  0
   -2.8420   14.2700   -2.1740 N   0  0  0  0  0  0  0  0  0  0  0  0
   -2.4000   14.6420   -0.8700 C   0  0  1  0  0  0  0  0  0  0  0  0
   -4.1360   14.9600   -2.1990 C   0  0  0  0  0  0  0  0  0  0  0  0
   -3.6100   14.4120   -0.0260 C   0  0  2  0  0  0  0  0  0  0  0  0
   -4.5910   15.1910   -0.8060 N   0  0  0  0  0  0  0  0  0  0  0  0
   -1.0880   14.2380   -0.3780 N   0  0  0  0  0  0  0  0  0  0  0  0
   -0.8290   14.6630    0.9820 C   0  0  0  0  0  0  0  0  0  0  0  0
   -3.2170   14.7870    1.4050 C   0  0  2  0  0  0  0  0  0  0  0  0
   -4.1640   15.6690    2.0500 N   0  0  0  0  0  0  0  0  0  0  0  0
   -1.9280   15.4320    1.4840 N   0  0  0  0  0  0  0  0  0  0  0  0
  2  1  1  6
  2  3  1  0
  2  4  1  0
  4  5  1  1
  3  6  1  6
  3  7  1  0
  4  8  1  0
  7  8  1  0
  8  9  1  6
  6 10  1  0
 10 11  1  0
 10 12  1  0
 11 13  1  0
 12 14  1  0
 13 14  1  6
 11 15  1  1
 15 16  1  0
 13 17  1  0
 17 18  1  6
 16 19  1  0
 17 19  1  0
M  END
>  <%Rank>  (1349) 
nan

>  <N_hits>  (1349) 
2

>  <submitter_name>  (1349) 
nan

>  <original SMILES>  (1349) 
nan

>  <∆G_unbound>  (1349) 
1.585433

>  <∆G_bound>  (1349) 
-4.68137

>  <regarded>  (1349) 
mArh-6woj_A_0_A_γ,5L9K_0_A_δ

>  <ref_pdb>  (1349) 
nan

>  <smiles>  (1349) 
CC1OC(CN2CNC3C(N)NCNC32)C(O)C1O

>  <submitter_email>  (1349) 
nan

>  <disregarded>  (1349) 


>  <LE>  (1349) 
-0.329832

>  <submitter_institution>  (1349) 
nan

>  <ref_mols>  (1349) 
mArh-6woj_A_0_A,5L9K_0_A

>  <N_constrained_atoms>  (1349) 
18.0

>  <ref_url>  (1349) 
nan

>  <method>  (1349) 
nan

>  <comRMSD>  (1349) 
nan

>  <N_unconstrained_atoms>  (1349) 
1.0

>  <∆∆G>  (1349) 
-6.266804

>  <runtime>  (1349) 
35.828709

>  <generation_date>  (1349) 
nan

$$$$
mArh-2bfq_0_A_γ-5CMS_0_G_γ
     RDKit          3D

 17 19  0  0  0  0  0  0  0  0999 V2000
   -1.4380   12.8960   -3.7160 O   0  0  0  0  0  0  0  0  0  0  0  0
   -0.6340   14.0070   -3.3450 C   0  0  2  0  0  0  0  0  0  0  0  0
   -1.3470   15.1320   -2.5660 C   0  0  2  0  0  0  0  0  0  0  0  0
   -0.0450   14.6520   -4.6020 C   0  0  2  0  0  0  0  0  0  0  0  0
    1.3410   14.3670   -4.7150 O   0  0  0  0  0  0  0  0  0  0  0  0
   -0.8430   16.3760   -3.1340 O   0  0  0  0  0  0  0  0  0  0  0  0
   -0.4190   16.1340   -4.4920 C   0  0  1  0  0  0  0  0  0  0  0  0
   -1.1710   15.2460   -1.0200 C   0  0  1  0  0  0  0  0  0  0  0  0
   -2.9030   14.9980   -2.6820 C   0  0  0  0  0  0  0  0  0  0  0  0
    0.6620   17.1450   -4.8660 C   0  0  0  0  0  0  0  0  0  0  0  0
   -2.6170   15.5120   -0.5550 C   0  0  1  0  0  0  0  0  0  0  0  0
   -3.4320   14.6140   -1.3510 N   0  0  0  0  0  0  0  0  0  0  0  0
   -0.4980   14.1910   -0.2550 N   0  0  0  0  0  0  0  0  0  0  0  0
   -0.4780   14.5000    1.1610 C   0  0  0  0  0  0  0  0  0  0  0  0
   -2.6870   15.5160    0.9820 C   0  0  1  0  0  0  0  0  0  0  0  0
   -4.0300   15.3880    1.5170 N   0  0  0  0  0  0  0  0  0  0  0  0
   -1.8300   14.5820    1.6740 N   0  0  0  0  0  0  0  0  0  0  0  0
  2  1  1  6
  2  3  1  0
  2  4  1  0
  4  5  1  1
  3  6  1  0
  4  7  1  0
  6  7  1  0
  3  8  1  0
  3  9  1  1
  7 10  1  1
  8 11  1  0
  9 12  1  0
 11 12  1  6
  8 13  1  1
 13 14  1  0
 11 15  1  0
 15 16  1  6
 14 17  1  0
 15 17  1  0
M  END
>  <%Rank>  (1350) 
nan

>  <N_hits>  (1350) 
2

>  <submitter_name>  (1350) 
nan

>  <original SMILES>  (1350) 
nan

>  <∆G_unbound>  (1350) 
0.631637

>  <∆G_bound>  (1350) 
-3.86073

>  <regarded>  (1350) 
mArh-2bfq_0_A_γ,5CMS_0_G_γ

>  <ref_pdb>  (1350) 
nan

>  <smiles>  (1350) 
CC1OC2(CNC3C(N)NCNC32)C(O)C1O

>  <submitter_email>  (1350) 
nan

>  <disregarded>  (1350) 


>  <LE>  (1350) 
-0.264257

>  <submitter_institution>  (1350) 
nan

>  <ref_mols>  (1350) 
mArh-2bfq_0_A,5CMS_0_G

>  <N_constrained_atoms>  (1350) 
17.0

>  <ref_url>  (1350) 
nan

>  <method>  (1350) 
nan

>  <comRMSD>  (1350) 
nan

>  <N_unconstrained_atoms>  (1350) 
0.0

>  <∆∆G>  (1350) 
-4.492366

>  <runtime>  (1350) 
38.294538

>  <generation_date>  (1350) 
nan

$$$$
mArh-5cms_N_13_N_γ-5CMS_0_O_γ
     RDKit          3D

  9  9  0  0  0  0  0  0  0  0999 V2000
    1.2840   12.4210   -3.7660 O   0  0  0  0  0  0  0  0  0  0  0  0
    0.3380   13.4190   -4.0890 C   0  0  0  0  0  0  0  0  0  0  0  0
    0.1800   14.4860   -2.9970 C   0  0  0  0  0  0  0  0  0  0  0  0
   -0.8750   12.7520   -4.3950 O   0  0  0  0  0  0  0  0  0  0  0  0
    0.8850   14.1970   -5.2880 C   0  0  1  0  0  0  0  0  0  0  0  0
    0.0530   13.8360   -6.3710 O   0  0  0  0  0  0  0  0  0  0  0  0
   -0.0380   15.7160   -3.6790 O   0  0  0  0  0  0  0  0  0  0  0  0
    0.8870   15.6740   -4.7710 C   0  0  2  0  0  0  0  0  0  0  0  0
    0.5850   16.8680   -5.6630 C   0  0  0  0  0  0  0  0  0  0  0  0
  2  1  1  0
  2  3  1  0
  2  4  1  0
  2  5  1  0
  5  6  1  6
  3  7  1  0
  5  8  1  0
  7  8  1  0
  8  9  1  6
M  END
>  <%Rank>  (1351) 
nan

>  <N_hits>  (1351) 
2

>  <submitter_name>  (1351) 
nan

>  <original SMILES>  (1351) 
nan

>  <∆G_unbound>  (1351) 
0.013016

>  <∆G_bound>  (1351) 
-3.167

>  <regarded>  (1351) 
mArh-5cms_N_13_N_γ,5CMS_0_O_γ

>  <ref_pdb>  (1351) 
nan

>  <smiles>  (1351) 
CC1OCC(O)(O)C1O

>  <submitter_email>  (1351) 
nan

>  <disregarded>  (1351) 


>  <LE>  (1351) 
-0.353335

>  <submitter_institution>  (1351) 
nan

>  <ref_mols>  (1351) 
mArh-5cms_N_13_N,5CMS_0_O

>  <N_constrained_atoms>  (1351) 
9.0

>  <ref_url>  (1351) 
nan

>  <method>  (1351) 
nan

>  <comRMSD>  (1351) 
nan

>  <N_unconstrained_atoms>  (1351) 
0.0

>  <∆∆G>  (1351) 
-3.180016

>  <runtime>  (1351) 
22.520192

>  <generation_date>  (1351) 
nan

$$$$
5CB5_0_Q_δ-5CB5_0_I_γ
     RDKit          3D

 17 19  0  0  0  0  0  0  0  0999 V2000
   -3.7330   15.4540    1.5880 N   0  0  0  0  0  0  0  0  0  0  0  0
   -2.6380   14.8430    0.8540 C   0  0  1  0  0  0  0  0  0  0  0  0
   -2.5120   15.3280   -0.6040 C   0  0  1  0  0  0  0  0  0  0  0  0
   -1.4470   15.2050    1.5810 N   0  0  0  0  0  0  0  0  0  0  0  0
   -1.2670   14.6530   -1.1580 C   0  0  1  0  0  0  0  0  0  0  0  0
   -3.5690   15.0050   -1.5700 N   0  0  0  0  0  0  0  0  0  0  0  0
   -0.2020   14.7250    0.9820 C   0  0  0  0  0  0  0  0  0  0  0  0
   -1.3630   14.9350   -2.6810 C   0  0  1  0  0  0  0  0  0  0  0  0
   -2.8820   15.1870   -2.8740 C   0  0  0  0  0  0  0  0  0  0  0  0
   -0.1170   15.1120   -0.4070 N   0  0  0  0  0  0  0  0  0  0  0  0
   -0.5890   16.1390   -3.0010 O   0  0  0  0  0  0  0  0  0  0  0  0
   -0.7380   13.9150   -3.6580 C   0  0  1  0  0  0  0  0  0  0  0  0
   -1.4580   12.7430   -3.9950 O   0  0  0  0  0  0  0  0  0  0  0  0
   -0.5110   16.1750   -4.4380 C   0  0  2  0  0  0  0  0  0  0  0  0
   -0.3780   14.7200   -4.9070 C   0  0  1  0  0  0  0  0  0  0  0  0
    0.5960   17.1040   -4.9000 C   0  0  0  0  0  0  0  0  0  0  0  0
    0.9110   14.3490   -5.3880 O   0  0  0  0  0  0  0  0  0  0  0  0
  2  1  1  1
  2  3  1  0
  2  4  1  0
  3  5  1  0
  3  6  1  6
  4  7  1  0
  5  8  1  0
  6  9  1  0
  8  9  1  6
  5 10  1  1
  7 10  1  0
  8 11  1  0
  8 12  1  0
 12 13  1  6
 11 14  1  0
 12 15  1  0
 14 15  1  0
 14 16  1  1
 15 17  1  1
M  END
>  <%Rank>  (1352) 
nan

>  <N_hits>  (1352) 
2

>  <submitter_name>  (1352) 
nan

>  <original SMILES>  (1352) 
nan

>  <∆G_unbound>  (1352) 
0.690665

>  <∆G_bound>  (1352) 
-3.305613

>  <regarded>  (1352) 
5CB5_0_Q_δ,5CB5_0_I_γ

>  <ref_pdb>  (1352) 
nan

>  <smiles>  (1352) 
CC1OC2(CNC3C(N)NCNC32)C(O)C1O

>  <submitter_email>  (1352) 
nan

>  <disregarded>  (1352) 


>  <LE>  (1352) 
-0.235075

>  <submitter_institution>  (1352) 
nan

>  <ref_mols>  (1352) 
5CB5_0_Q,5CB5_0_I

>  <N_constrained_atoms>  (1352) 
17.0

>  <ref_url>  (1352) 
nan

>  <method>  (1352) 
nan

>  <comRMSD>  (1352) 
nan

>  <N_unconstrained_atoms>  (1352) 
0.0

>  <∆∆G>  (1352) 
-3.996278

>  <runtime>  (1352) 
30.259525

>  <generation_date>  (1352) 
nan

$$$$
mArh-2fav_B_0_B_γ-5LW0_0_A_γ
     RDKit          3D

  8  8  0  0  0  0  0  0  0  0999 V2000
   -0.0300   12.2510   -4.3650 O   0  0  0  0  0  0  0  0  0  0  0  0
   -0.3000   13.6490   -4.3000 C   0  0  1  0  0  0  0  0  0  0  0  0
   -0.1360   14.2230   -2.8860 C   0  0  0  0  0  0  0  0  0  0  0  0
    0.7550   14.4530   -5.0270 C   0  0  2  0  0  0  0  0  0  0  0  0
    2.0580   13.9730   -4.7030 O   0  0  0  0  0  0  0  0  0  0  0  0
    0.3810   15.5690   -3.0460 O   0  0  0  0  0  0  0  0  0  0  0  0
    0.3100   15.7960   -4.4560 C   0  0  1  0  0  0  0  0  0  0  0  0
    0.9830   17.0790   -4.8910 C   0  0  0  0  0  0  0  0  0  0  0  0
  2  1  1  1
  2  3  1  0
  2  4  1  0
  4  5  1  1
  3  6  1  0
  4  7  1  0
  6  7  1  0
  7  8  1  1
M  END
>  <%Rank>  (1353) 
nan

>  <N_hits>  (1353) 
2

>  <submitter_name>  (1353) 
nan

>  <original SMILES>  (1353) 
nan

>  <∆G_unbound>  (1353) 
0.021216

>  <∆G_bound>  (1353) 
-2.978902

>  <regarded>  (1353) 
mArh-2fav_B_0_B_γ,5LW0_0_A_γ

>  <ref_pdb>  (1353) 
nan

>  <smiles>  (1353) 
CC1OCC(O)C1O

>  <submitter_email>  (1353) 
nan

>  <disregarded>  (1353) 


>  <LE>  (1353) 
-0.375015

>  <submitter_institution>  (1353) 
nan

>  <ref_mols>  (1353) 
mArh-2fav_B_0_B,5LW0_0_A

>  <N_constrained_atoms>  (1353) 
8.0

>  <ref_url>  (1353) 
nan

>  <method>  (1353) 
nan

>  <comRMSD>  (1353) 
nan

>  <N_unconstrained_atoms>  (1353) 
0.0

>  <∆∆G>  (1353) 
-3.000118

>  <runtime>  (1353) 
23.311635

>  <generation_date>  (1353) 
nan

$$$$
5CMS_0_H_δ-5CB5_0_P_δ
     RDKit          3D

 10 11  0  0  0  0  0  0  0  0999 V2000
   -3.9050   15.2200    1.8810 N   0  0  0  0  0  0  0  0  0  0  0  0
   -2.6990   15.3150    1.0850 C   0  0  2  0  0  0  0  0  0  0  0  0
   -2.9170   14.6590   -0.2740 C   0  0  2  0  0  0  0  0  0  0  0  0
   -1.6150   14.7270    1.8350 N   0  0  0  0  0  0  0  0  0  0  0  0
   -1.5280   14.3690   -0.8790 C   0  0  1  0  0  0  0  0  0  0  0  0
   -3.6460   15.3990   -1.3030 N   0  0  0  0  0  0  0  0  0  0  0  0
   -0.3570   14.5180    1.1370 C   0  0  0  0  0  0  0  0  0  0  0  0
   -1.6180   14.7700   -2.2610 N   0  0  0  0  0  0  0  0  0  0  0  0
   -3.0370   14.9270   -2.5330 C   0  0  0  0  0  0  0  0  0  0  0  0
   -0.4340   15.0030   -0.2080 N   0  0  0  0  0  0  0  0  0  0  0  0
  2  1  1  1
  2  3  1  0
  2  4  1  0
  3  5  1  0
  3  6  1  6
  4  7  1  0
  5  8  1  6
  6  9  1  0
  8  9  1  0
  5 10  1  0
  7 10  1  0
M  END
>  <%Rank>  (1354) 
nan

>  <N_hits>  (1354) 
2

>  <submitter_name>  (1354) 
nan

>  <original SMILES>  (1354) 
nan

>  <∆G_unbound>  (1354) 
0.213408

>  <∆G_bound>  (1354) 
-0.947809

>  <regarded>  (1354) 
5CMS_0_H_δ,5CB5_0_P_δ

>  <ref_pdb>  (1354) 
nan

>  <smiles>  (1354) 
NC1NCNC2NCNC12

>  <submitter_email>  (1354) 
nan

>  <disregarded>  (1354) 


>  <LE>  (1354) 
-0.116122

>  <submitter_institution>  (1354) 
nan

>  <ref_mols>  (1354) 
5CMS_0_H,5CB5_0_P

>  <N_constrained_atoms>  (1354) 
10.0

>  <ref_url>  (1354) 
nan

>  <method>  (1354) 
nan

>  <comRMSD>  (1354) 
nan

>  <N_unconstrained_atoms>  (1354) 
0.0

>  <∆∆G>  (1354) 
-1.161217

>  <runtime>  (1354) 
27.828935

>  <generation_date>  (1354) 
nan

$$$$
5CMS_0_A_δ-6WOJ_0_D_γ
     RDKit          3D

 17 19  0  0  0  0  0  0  0  0999 V2000
   -3.9830   15.5880    1.4700 N   0  0  0  0  0  0  0  0  0  0  0  0
   -2.8940   14.8780    0.8180 C   0  0  1  0  0  0  0  0  0  0  0  0
   -2.6360   15.2340   -0.6680 C   0  0  1  0  0  0  0  0  0  0  0  0
   -1.7260   15.2240    1.5950 N   0  0  0  0  0  0  0  0  0  0  0  0
   -1.4130   14.4180   -1.0980 C   0  0  1  0  0  0  0  0  0  0  0  0
   -3.6350   14.9090   -1.6970 N   0  0  0  0  0  0  0  0  0  0  0  0
   -0.5300   14.5190    1.1550 C   0  0  0  0  0  0  0  0  0  0  0  0
   -1.3490   14.6630   -2.6440 C   0  0  1  0  0  0  0  0  0  0  0  0
   -2.8290   15.0310   -2.9470 C   0  0  0  0  0  0  0  0  0  0  0  0
   -0.2880   14.7900   -0.2490 N   0  0  0  0  0  0  0  0  0  0  0  0
   -0.4390   15.7960   -2.8860 O   0  0  0  0  0  0  0  0  0  0  0  0
   -0.7390   13.5870   -3.6090 C   0  0  1  0  0  0  0  0  0  0  0  0
   -1.6010   12.6520   -4.2250 O   0  0  0  0  0  0  0  0  0  0  0  0
   -0.1260   15.7930   -4.2900 C   0  0  2  0  0  0  0  0  0  0  0  0
    0.0490   14.3340   -4.6950 C   0  0  1  0  0  0  0  0  0  0  0  0
    1.0730   16.6590   -4.5690 C   0  0  0  0  0  0  0  0  0  0  0  0
    1.3970   13.8650   -4.7760 O   0  0  0  0  0  0  0  0  0  0  0  0
  2  1  1  1
  2  3  1  0
  2  4  1  0
  3  5  1  0
  3  6  1  6
  4  7  1  0
  5  8  1  0
  6  9  1  0
  8  9  1  6
  5 10  1  1
  7 10  1  0
  8 11  1  0
  8 12  1  0
 12 13  1  6
 11 14  1  0
 12 15  1  0
 14 15  1  0
 14 16  1  1
 15 17  1  1
M  END
>  <%Rank>  (1355) 
nan

>  <N_hits>  (1355) 
2

>  <submitter_name>  (1355) 
nan

>  <original SMILES>  (1355) 
nan

>  <∆G_unbound>  (1355) 
0.690665

>  <∆G_bound>  (1355) 
-3.470579

>  <regarded>  (1355) 
5CMS_0_A_δ,6WOJ_0_D_γ

>  <ref_pdb>  (1355) 
nan

>  <smiles>  (1355) 
CC1OC2(CNC3C(N)NCNC32)C(O)C1O

>  <submitter_email>  (1355) 
nan

>  <disregarded>  (1355) 


>  <LE>  (1355) 
-0.244779

>  <submitter_institution>  (1355) 
nan

>  <ref_mols>  (1355) 
5CMS_0_A,6WOJ_0_D

>  <N_constrained_atoms>  (1355) 
17.0

>  <ref_url>  (1355) 
nan

>  <method>  (1355) 
nan

>  <comRMSD>  (1355) 
nan

>  <N_unconstrained_atoms>  (1355) 
0.0

>  <∆∆G>  (1355) 
-4.161244

>  <runtime>  (1355) 
30.083585

>  <generation_date>  (1355) 
nan

$$$$
mArh-5cms_C_2_C_γ-5CMS_0_L_γ
     RDKit          3D

  9  9  0  0  0  0  0  0  0  0999 V2000
   -0.9710   12.1610   -4.3330 O   0  0  0  0  0  0  0  0  0  0  0  0
   -0.9310   13.5910   -4.3950 C   0  0  1  0  0  0  0  0  0  0  0  0
   -0.8720   14.2340   -3.0150 C   0  0  0  0  0  0  0  0  0  0  0  0
    0.4280   13.9640   -4.9540 C   0  0  0  0  0  0  0  0  0  0  0  0
    1.3300   12.9780   -4.5150 O   0  0  0  0  0  0  0  0  0  0  0  0
    0.4750   13.9020   -6.3430 O   0  0  0  0  0  0  0  0  0  0  0  0
   -0.1750   15.4850   -3.1900 O   0  0  0  0  0  0  0  0  0  0  0  0
    0.6580   15.3790   -4.3720 C   0  0  2  0  0  0  0  0  0  0  0  0
    0.3650   16.5610   -5.2790 C   0  0  0  0  0  0  0  0  0  0  0  0
  2  1  1  1
  2  3  1  0
  2  4  1  0
  4  5  1  0
  4  6  1  0
  3  7  1  0
  4  8  1  0
  7  8  1  0
  8  9  1  6
M  END
>  <%Rank>  (1356) 
nan

>  <N_hits>  (1356) 
2

>  <submitter_name>  (1356) 
nan

>  <original SMILES>  (1356) 
nan

>  <∆G_unbound>  (1356) 
0.008934

>  <∆G_bound>  (1356) 
-2.597893

>  <regarded>  (1356) 
mArh-5cms_C_2_C_γ,5CMS_0_L_γ

>  <ref_pdb>  (1356) 
nan

>  <smiles>  (1356) 
CC1OCC(O)C1(O)O

>  <submitter_email>  (1356) 
nan

>  <disregarded>  (1356) 


>  <LE>  (1356) 
-0.289647

>  <submitter_institution>  (1356) 
nan

>  <ref_mols>  (1356) 
mArh-5cms_C_2_C,5CMS_0_L

>  <N_constrained_atoms>  (1356) 
9.0

>  <ref_url>  (1356) 
nan

>  <method>  (1356) 
nan

>  <comRMSD>  (1356) 
nan

>  <N_unconstrained_atoms>  (1356) 
0.0

>  <∆∆G>  (1356) 
-2.606827

>  <runtime>  (1356) 
24.000311

>  <generation_date>  (1356) 
nan

$$$$
5CMS_0_H_γ-6WOJ_0_B_γ
     RDKit          3D

  8  8  0  0  0  0  0  0  0  0999 V2000
   -0.7850   12.4080   -3.9730 O   0  0  0  0  0  0  0  0  0  0  0  0
   -0.9940   13.8140   -4.0090 C   0  0  1  0  0  0  0  0  0  0  0  0
   -0.4770   14.5220   -2.7570 C   0  0  0  0  0  0  0  0  0  0  0  0
   -0.1050   14.4100   -5.0650 C   0  0  2  0  0  0  0  0  0  0  0  0
    1.1650   13.7670   -5.0820 O   0  0  0  0  0  0  0  0  0  0  0  0
    0.1780   15.7340   -3.2030 O   0  0  0  0  0  0  0  0  0  0  0  0
   -0.1540   15.8550   -4.5930 C   0  0  1  0  0  0  0  0  0  0  0  0
    0.7190   16.8830   -5.2910 C   0  0  0  0  0  0  0  0  0  0  0  0
  2  1  1  1
  2  3  1  0
  2  4  1  0
  4  5  1  1
  3  6  1  0
  4  7  1  0
  6  7  1  0
  7  8  1  6
M  END
>  <%Rank>  (1357) 
nan

>  <N_hits>  (1357) 
2

>  <submitter_name>  (1357) 
nan

>  <original SMILES>  (1357) 
nan

>  <∆G_unbound>  (1357) 
0.021216

>  <∆G_bound>  (1357) 
-2.74308

>  <regarded>  (1357) 
5CMS_0_H_γ,6WOJ_0_B_γ

>  <ref_pdb>  (1357) 
nan

>  <smiles>  (1357) 
CC1OCC(O)C1O

>  <submitter_email>  (1357) 
nan

>  <disregarded>  (1357) 


>  <LE>  (1357) 
-0.345537

>  <submitter_institution>  (1357) 
nan

>  <ref_mols>  (1357) 
5CMS_0_H,6WOJ_0_B

>  <N_constrained_atoms>  (1357) 
8.0

>  <ref_url>  (1357) 
nan

>  <method>  (1357) 
nan

>  <comRMSD>  (1357) 
nan

>  <N_unconstrained_atoms>  (1357) 
0.0

>  <∆∆G>  (1357) 
-2.764296

>  <runtime>  (1357) 
22.655925

>  <generation_date>  (1357) 
nan

$$$$
5CMS_0_R_γ-5CB5_0_K_γ
     RDKit          3D

  8  8  0  0  0  0  0  0  0  0999 V2000
    0.2200   12.2630   -3.9150 O   0  0  0  0  0  0  0  0  0  0  0  0
   -0.3450   13.5610   -4.1090 C   0  0  1  0  0  0  0  0  0  0  0  0
   -0.0490   14.4820   -2.9270 C   0  0  0  0  0  0  0  0  0  0  0  0
    0.3480   14.2730   -5.2510 C   0  0  2  0  0  0  0  0  0  0  0  0
    1.6910   13.8340   -5.3620 O   0  0  0  0  0  0  0  0  0  0  0  0
    0.2930   15.7840   -3.4490 O   0  0  0  0  0  0  0  0  0  0  0  0
    0.0770   15.7360   -4.8660 C   0  0  1  0  0  0  0  0  0  0  0  0
    0.8690   16.8500   -5.5300 C   0  0  0  0  0  0  0  0  0  0  0  0
  2  1  1  1
  2  3  1  0
  2  4  1  0
  4  5  1  1
  3  6  1  0
  4  7  1  0
  6  7  1  0
  7  8  1  6
M  END
>  <%Rank>  (1358) 
nan

>  <N_hits>  (1358) 
2

>  <submitter_name>  (1358) 
nan

>  <original SMILES>  (1358) 
nan

>  <∆G_unbound>  (1358) 
0.021216

>  <∆G_bound>  (1358) 
-2.848171

>  <regarded>  (1358) 
5CMS_0_R_γ,5CB5_0_K_γ

>  <ref_pdb>  (1358) 
nan

>  <smiles>  (1358) 
CC1OCC(O)C1O

>  <submitter_email>  (1358) 
nan

>  <disregarded>  (1358) 


>  <LE>  (1358) 
-0.358673

>  <submitter_institution>  (1358) 
nan

>  <ref_mols>  (1358) 
5CMS_0_R,5CB5_0_K

>  <N_constrained_atoms>  (1358) 
8.0

>  <ref_url>  (1358) 
nan

>  <method>  (1358) 
nan

>  <comRMSD>  (1358) 
nan

>  <N_unconstrained_atoms>  (1358) 
0.0

>  <∆∆G>  (1358) 
-2.869388

>  <runtime>  (1358) 
23.527119

>  <generation_date>  (1358) 
nan

$$$$
5CMS_0_O_δ-6WOJ_0_B_γ
     RDKit          3D

 17 19  0  0  0  0  0  0  0  0999 V2000
   -3.7000   15.4170    1.5390 N   0  0  0  0  0  0  0  0  0  0  0  0
   -2.5990   14.7540    0.8580 C   0  0  1  0  0  0  0  0  0  0  0  0
   -2.4010   15.1750   -0.6080 C   0  0  1  0  0  0  0  0  0  0  0  0
   -1.4310   15.1480    1.5940 N   0  0  0  0  0  0  0  0  0  0  0  0
   -1.2150   14.3810   -1.1720 C   0  0  1  0  0  0  0  0  0  0  0  0
   -3.4640   14.9580   -1.5850 N   0  0  0  0  0  0  0  0  0  0  0  0
   -0.1970   14.5680    1.0750 C   0  0  0  0  0  0  0  0  0  0  0  0
   -1.2760   14.7500   -2.7060 C   0  0  1  0  0  0  0  0  0  0  0  0
   -2.7210   15.2970   -2.8220 C   0  0  0  0  0  0  0  0  0  0  0  0
   -0.0460   14.7430   -0.3690 N   0  0  0  0  0  0  0  0  0  0  0  0
   -0.2900   15.8180   -2.9630 O   0  0  0  0  0  0  0  0  0  0  0  0
   -0.9950   13.7490   -3.9000 C   0  0  2  0  0  0  0  0  0  0  0  0
   -0.6910   12.3980   -3.6520 O   0  0  0  0  0  0  0  0  0  0  0  0
   -0.1080   15.8430   -4.3870 C   0  0  2  0  0  0  0  0  0  0  0  0
    0.1010   14.3900   -4.7660 C   0  0  1  0  0  0  0  0  0  0  0  0
    0.9750   16.8020   -4.8220 C   0  0  0  0  0  0  0  0  0  0  0  0
    1.3920   13.8360   -4.5080 O   0  0  0  0  0  0  0  0  0  0  0  0
  2  1  1  1
  2  3  1  0
  2  4  1  0
  3  5  1  0
  3  6  1  6
  4  7  1  0
  5  8  1  0
  6  9  1  0
  8  9  1  6
  5 10  1  1
  7 10  1  0
  8 11  1  0
  8 12  1  0
 12 13  1  1
 11 14  1  0
 12 15  1  0
 14 15  1  0
 14 16  1  1
 15 17  1  1
M  END
>  <%Rank>  (1359) 
nan

>  <N_hits>  (1359) 
2

>  <submitter_name>  (1359) 
nan

>  <original SMILES>  (1359) 
nan

>  <∆G_unbound>  (1359) 
0.690665

>  <∆G_bound>  (1359) 
-3.287893

>  <regarded>  (1359) 
5CMS_0_O_δ,6WOJ_0_B_γ

>  <ref_pdb>  (1359) 
nan

>  <smiles>  (1359) 
CC1OC2(CNC3C(N)NCNC32)C(O)C1O

>  <submitter_email>  (1359) 
nan

>  <disregarded>  (1359) 


>  <LE>  (1359) 
-0.234033

>  <submitter_institution>  (1359) 
nan

>  <ref_mols>  (1359) 
5CMS_0_O,6WOJ_0_B

>  <N_constrained_atoms>  (1359) 
17.0

>  <ref_url>  (1359) 
nan

>  <method>  (1359) 
nan

>  <comRMSD>  (1359) 
nan

>  <N_unconstrained_atoms>  (1359) 
0.0

>  <∆∆G>  (1359) 
-3.978558

>  <runtime>  (1359) 
29.149305

>  <generation_date>  (1359) 
nan

$$$$
5CMS_0_D_γ-mArh-x0849_0_A_α
     RDKit          3D

 10 11  0  0  0  0  0  0  0  0999 V2000
   -4.1620   15.5850    1.8350 N   0  0  0  0  0  0  0  0  0  0  0  0
   -2.9370   15.4760    1.0700 C   0  0  2  0  0  0  0  0  0  0  0  0
   -3.1740   14.8050   -0.2830 C   0  0  2  0  0  0  0  0  0  0  0  0
   -1.9530   14.7880    1.8710 N   0  0  0  0  0  0  0  0  0  0  0  0
   -1.7960   14.3850   -0.8360 C   0  0  1  0  0  0  0  0  0  0  0  0
   -3.8130   15.5620   -1.3570 N   0  0  0  0  0  0  0  0  0  0  0  0
   -0.6860   14.4590    1.2250 C   0  0  0  0  0  0  0  0  0  0  0  0
   -1.8000   14.7830   -2.2240 N   0  0  0  0  0  0  0  0  0  0  0  0
   -3.1980   15.0210   -2.5530 C   0  0  0  0  0  0  0  0  0  0  0  0
   -0.6660   14.9270   -0.1340 N   0  0  0  0  0  0  0  0  0  0  0  0
  2  1  1  1
  2  3  1  0
  2  4  1  0
  3  5  1  0
  3  6  1  6
  4  7  1  0
  5  8  1  6
  6  9  1  0
  8  9  1  0
  5 10  1  0
  7 10  1  0
M  END
>  <%Rank>  (1360) 
nan

>  <N_hits>  (1360) 
2

>  <submitter_name>  (1360) 
nan

>  <original SMILES>  (1360) 
nan

>  <∆G_unbound>  (1360) 
0.213408

>  <∆G_bound>  (1360) 
-1.158373

>  <regarded>  (1360) 
5CMS_0_D_γ,mArh-x0849_0_A_α

>  <ref_pdb>  (1360) 
nan

>  <smiles>  (1360) 
NC1NCNC2NCNC12

>  <submitter_email>  (1360) 
nan

>  <disregarded>  (1360) 


>  <LE>  (1360) 
-0.137178

>  <submitter_institution>  (1360) 
nan

>  <ref_mols>  (1360) 
5CMS_0_D,mArh-x0849_0_A

>  <N_constrained_atoms>  (1360) 
10.0

>  <ref_url>  (1360) 
nan

>  <method>  (1360) 
nan

>  <comRMSD>  (1360) 
nan

>  <N_unconstrained_atoms>  (1360) 
0.0

>  <∆∆G>  (1360) 
-1.371781

>  <runtime>  (1360) 
26.051471

>  <generation_date>  (1360) 
nan

$$$$
5CB5_0_D_γ-4IQY_0_A_γ
     RDKit          3D

  9  9  0  0  0  0  0  0  0  0999 V2000
   -0.0180   12.4120   -4.6330 O   0  0  0  0  0  0  0  0  0  0  0  0
   -0.4080   13.7820   -4.6100 C   0  0  1  0  0  0  0  0  0  0  0  0
   -0.4240   14.3610   -3.2220 C   0  0  2  0  0  0  0  0  0  0  0  0
    0.6490   14.6240   -5.2580 C   0  0  2  0  0  0  0  0  0  0  0  0
    1.8530   13.8940   -5.2370 O   0  0  0  0  0  0  0  0  0  0  0  0
   -1.6470   13.9960   -2.6310 O   0  0  0  0  0  0  0  0  0  0  0  0
   -0.2930   15.7730   -3.4040 O   0  0  0  0  0  0  0  0  0  0  0  0
    0.6640   15.9400   -4.4680 C   0  0  2  0  0  0  0  0  0  0  0  0
    0.3220   17.1730   -5.3000 C   0  0  0  0  0  0  0  0  0  0  0  0
  2  1  1  1
  2  3  1  0
  2  4  1  0
  4  5  1  1
  3  6  1  6
  3  7  1  0
  4  8  1  0
  7  8  1  0
  8  9  1  6
M  END
>  <%Rank>  (1361) 
nan

>  <N_hits>  (1361) 
2

>  <submitter_name>  (1361) 
nan

>  <original SMILES>  (1361) 
nan

>  <∆G_unbound>  (1361) 
0.027418

>  <∆G_bound>  (1361) 
-2.65048

>  <regarded>  (1361) 
5CB5_0_D_γ,4IQY_0_A_γ

>  <ref_pdb>  (1361) 
nan

>  <smiles>  (1361) 
CC1OC(O)C(O)C1O

>  <submitter_email>  (1361) 
nan

>  <disregarded>  (1361) 


>  <LE>  (1361) 
-0.297544

>  <submitter_institution>  (1361) 
nan

>  <ref_mols>  (1361) 
5CB5_0_D,4IQY_0_A

>  <N_constrained_atoms>  (1361) 
9.0

>  <ref_url>  (1361) 
nan

>  <method>  (1361) 
nan

>  <comRMSD>  (1361) 
nan

>  <N_unconstrained_atoms>  (1361) 
0.0

>  <∆∆G>  (1361) 
-2.677899

>  <runtime>  (1361) 
25.977316

>  <generation_date>  (1361) 
nan

$$$$
5DUS_0_A_α-6WOJ_0_D_α
     RDKit          3D

  9  9  0  0  0  0  0  0  0  0999 V2000
   -1.9110   22.0650   -7.8870 C   0  0  0  0  0  0  0  0  0  0  0  0
   -3.4040   22.1440   -8.1560 C   0  0  1  0  0  0  0  0  0  0  0  0
   -4.0950   21.3480   -7.1870 O   0  0  0  0  0  0  0  0  0  0  0  0
   -3.9680   23.5590   -8.0320 C   0  0  1  0  0  0  0  0  0  0  0  0
   -4.2710   24.1340   -9.2880 O   0  0  0  0  0  0  0  0  0  0  0  0
   -5.3930   21.9020   -7.0450 C   0  0  2  0  0  0  0  0  0  0  0  0
   -5.2880   23.4000   -7.2900 C   0  0  1  0  0  0  0  0  0  0  0  0
   -5.8430   21.6300   -5.7200 O   0  0  0  0  0  0  0  0  0  0  0  0
   -5.4090   24.2090   -6.1350 O   0  0  0  0  0  0  0  0  0  0  0  0
  2  1  1  1
  2  3  1  0
  2  4  1  0
  4  5  1  6
  3  6  1  0
  4  7  1  0
  6  7  1  0
  6  8  1  1
  7  9  1  1
M  END
>  <%Rank>  (1362) 
nan

>  <N_hits>  (1362) 
2

>  <submitter_name>  (1362) 
nan

>  <original SMILES>  (1362) 
nan

>  <∆G_unbound>  (1362) 
0.037019

>  <∆G_bound>  (1362) 
-6.873216

>  <regarded>  (1362) 
5DUS_0_A_α,6WOJ_0_D_α

>  <ref_pdb>  (1362) 
nan

>  <smiles>  (1362) 
CC1OC(O)C(O)C1O

>  <submitter_email>  (1362) 
nan

>  <disregarded>  (1362) 


>  <LE>  (1362) 
-0.767804

>  <submitter_institution>  (1362) 
nan

>  <ref_mols>  (1362) 
5DUS_0_A,6WOJ_0_D

>  <N_constrained_atoms>  (1362) 
9.0

>  <ref_url>  (1362) 
nan

>  <method>  (1362) 
nan

>  <comRMSD>  (1362) 
nan

>  <N_unconstrained_atoms>  (1362) 
0.0

>  <∆∆G>  (1362) 
-6.910235

>  <runtime>  (1362) 
22.865093

>  <generation_date>  (1362) 
nan

$$$$
mArh-5lw0_B_1_B_γ-6WOJ_0_D_δ
     RDKit          3D

 17 19  0  0  0  0  0  0  0  0999 V2000
   -1.2160   12.0610   -3.5710 O   0  0  0  0  0  0  0  0  0  0  0  0
   -0.4100   13.1680   -3.2010 C   0  0  2  0  0  0  0  0  0  0  0  0
   -1.1420   14.3560   -2.5460 C   0  0  2  0  0  0  0  0  0  0  0  0
    0.2920   13.7430   -4.4380 C   0  0  2  0  0  0  0  0  0  0  0  0
    1.6960   13.5740   -4.3330 O   0  0  0  0  0  0  0  0  0  0  0  0
   -0.5640   15.5330   -3.1620 O   0  0  0  0  0  0  0  0  0  0  0  0
   -0.2160   15.1840   -4.5070 C   0  0  1  0  0  0  0  0  0  0  0  0
   -1.0860   14.5820   -1.0100 C   0  0  1  0  0  0  0  0  0  0  0  0
   -2.6830   14.2700   -2.7780 C   0  0  0  0  0  0  0  0  0  0  0  0
    0.7310   16.2500   -5.0500 C   0  0  0  0  0  0  0  0  0  0  0  0
   -2.5710   14.8700   -0.6790 C   0  0  1  0  0  0  0  0  0  0  0  0
   -3.2970   13.9060   -1.4750 N   0  0  0  0  0  0  0  0  0  0  0  0
   -0.4650   13.6130   -0.1130 N   0  0  0  0  0  0  0  0  0  0  0  0
   -0.5250   14.0870    1.2590 C   0  0  0  0  0  0  0  0  0  0  0  0
   -2.7670   15.0320    0.8520 C   0  0  1  0  0  0  0  0  0  0  0  0
   -4.1270   14.7780    1.2610 N   0  0  0  0  0  0  0  0  0  0  0  0
   -1.8980   14.2420    1.6970 N   0  0  0  0  0  0  0  0  0  0  0  0
  2  1  1  6
  2  3  1  0
  2  4  1  0
  4  5  1  1
  3  6  1  0
  4  7  1  0
  6  7  1  0
  3  8  1  0
  3  9  1  6
  7 10  1  1
  8 11  1  0
  9 12  1  0
 11 12  1  1
  8 13  1  1
 13 14  1  0
 11 15  1  0
 15 16  1  6
 14 17  1  0
 15 17  1  0
M  END
>  <%Rank>  (1363) 
nan

>  <N_hits>  (1363) 
2

>  <submitter_name>  (1363) 
nan

>  <original SMILES>  (1363) 
nan

>  <∆G_unbound>  (1363) 
0.631637

>  <∆G_bound>  (1363) 
-3.657771

>  <regarded>  (1363) 
mArh-5lw0_B_1_B_γ,6WOJ_0_D_δ

>  <ref_pdb>  (1363) 
nan

>  <smiles>  (1363) 
CC1OC2(CNC3C(N)NCNC32)C(O)C1O

>  <submitter_email>  (1363) 
nan

>  <disregarded>  (1363) 


>  <LE>  (1363) 
-0.252318

>  <submitter_institution>  (1363) 
nan

>  <ref_mols>  (1363) 
mArh-5lw0_B_1_B,6WOJ_0_D

>  <N_constrained_atoms>  (1363) 
17.0

>  <ref_url>  (1363) 
nan

>  <method>  (1363) 
nan

>  <comRMSD>  (1363) 
nan

>  <N_unconstrained_atoms>  (1363) 
0.0

>  <∆∆G>  (1363) 
-4.289407

>  <runtime>  (1363) 
29.285211

>  <generation_date>  (1363) 
nan

$$$$
5CMS_0_A_γ-5CB5_0_G_δ
     RDKit          3D

 17 19  0  0  0  0  0  0  0  0999 V2000
   -1.3270   12.0790   -3.6210 O   0  0  0  0  0  0  0  0  0  0  0  0
   -0.5900   13.2700   -3.3960 C   0  0  2  0  0  0  0  0  0  0  0  0
   -1.3390   14.4390   -2.7110 C   0  0  2  0  0  0  0  0  0  0  0  0
   -0.0930   13.8050   -4.7480 C   0  0  2  0  0  0  0  0  0  0  0  0
    1.2840   13.5130   -4.9470 O   0  0  0  0  0  0  0  0  0  0  0  0
   -0.7850   15.6130   -3.3670 O   0  0  0  0  0  0  0  0  0  0  0  0
   -0.4690   15.2900   -4.7320 C   0  0  1  0  0  0  0  0  0  0  0  0
   -1.2340   14.7090   -1.1690 C   0  0  1  0  0  0  0  0  0  0  0  0
   -2.8980   14.3700   -2.8610 C   0  0  0  0  0  0  0  0  0  0  0  0
    0.5760   16.2790   -5.2360 C   0  0  0  0  0  0  0  0  0  0  0  0
   -2.7100   15.0420   -0.7670 C   0  0  1  0  0  0  0  0  0  0  0  0
   -3.4790   14.0760   -1.5170 N   0  0  0  0  0  0  0  0  0  0  0  0
   -0.5870   13.8050   -0.2330 N   0  0  0  0  0  0  0  0  0  0  0  0
   -0.5630   14.4000    1.0970 C   0  0  0  0  0  0  0  0  0  0  0  0
   -2.8550   15.2350    0.7860 C   0  0  1  0  0  0  0  0  0  0  0  0
   -4.1850   14.9610    1.2750 N   0  0  0  0  0  0  0  0  0  0  0  0
   -1.9120   14.5130    1.6180 N   0  0  0  0  0  0  0  0  0  0  0  0
  2  1  1  6
  2  3  1  0
  2  4  1  0
  4  5  1  1
  3  6  1  0
  4  7  1  0
  6  7  1  0
  3  8  1  0
  3  9  1  6
  7 10  1  1
  8 11  1  0
  9 12  1  0
 11 12  1  1
  8 13  1  1
 13 14  1  0
 11 15  1  0
 15 16  1  1
 14 17  1  0
 15 17  1  0
M  END
>  <%Rank>  (1364) 
nan

>  <N_hits>  (1364) 
2

>  <submitter_name>  (1364) 
nan

>  <original SMILES>  (1364) 
nan

>  <∆G_unbound>  (1364) 
0.631637

>  <∆G_bound>  (1364) 
-3.329222

>  <regarded>  (1364) 
5CMS_0_A_γ,5CB5_0_G_δ

>  <ref_pdb>  (1364) 
nan

>  <smiles>  (1364) 
CC1OC2(CNC3C(N)NCNC32)C(O)C1O

>  <submitter_email>  (1364) 
nan

>  <disregarded>  (1364) 


>  <LE>  (1364) 
-0.232992

>  <submitter_institution>  (1364) 
nan

>  <ref_mols>  (1364) 
5CMS_0_A,5CB5_0_G

>  <N_constrained_atoms>  (1364) 
17.0

>  <ref_url>  (1364) 
nan

>  <method>  (1364) 
nan

>  <comRMSD>  (1364) 
nan

>  <N_unconstrained_atoms>  (1364) 
0.0

>  <∆∆G>  (1364) 
-3.960859

>  <runtime>  (1364) 
31.661049

>  <generation_date>  (1364) 
nan

$$$$
5CMS_0_R_α-5CB5_0_Q_α
     RDKit          3D

 17 18  0  0  0  0  0  0  0  0999 V2000
   -2.4640   21.6750   -8.9140 C   0  0  0  0  0  0  0  0  0  0  0  0
   -3.7210   22.0360   -9.6930 C   0  0  2  0  0  0  0  0  0  0  0  0
   -3.6770   21.8990  -11.1020 O   0  0  0  0  0  0  0  0  0  0  0  0
   -2.8100   22.1230   -7.5190 C   0  0  2  0  0  0  0  0  0  0  0  0
   -3.9240   23.5150   -9.4960 C   0  0  1  0  0  0  0  0  0  0  0  0
   -3.6170   21.0990   -6.8670 O   0  0  0  0  0  0  0  0  0  0  0  0
   -3.7310   23.3360   -7.5860 C   0  0  2  0  0  0  0  0  0  0  0  0
   -2.6230   24.0480   -9.3210 O   0  0  0  0  0  0  0  0  0  0  0  0
   -3.0940   24.5770   -7.6500 O   0  0  0  0  0  0  0  0  0  0  0  0
   -4.7200   22.7520  -11.5650 C   0  0  2  0  0  0  0  0  0  0  0  0
   -4.5910   24.0360  -10.7650 C   0  0  2  0  0  0  0  0  0  0  0  0
   -4.8470   21.7520   -6.5130 C   0  0  2  0  0  0  0  0  0  0  0  0
   -4.4710   23.1970   -6.3220 C   0  0  2  0  0  0  0  0  0  0  0  0
   -5.9730   22.1760  -11.2580 O   0  0  0  0  0  0  0  0  0  0  0  0
   -3.8670   25.0720  -11.4240 O   0  0  0  0  0  0  0  0  0  0  0  0
   -5.3830   21.2440   -5.3250 O   0  0  0  0  0  0  0  0  0  0  0  0
   -5.5530   24.1160   -6.2500 O   0  0  0  0  0  0  0  0  0  0  0  0
  2  1  1  1
  2  3  1  0
  4  1  1  6
  2  5  1  0
  4  6  1  0
  4  7  1  0
  5  8  1  6
  7  9  1  1
  3 10  1  0
  5 11  1  0
 10 11  1  0
  6 12  1  0
  7 13  1  0
 12 13  1  0
 10 14  1  1
 11 15  1  6
 12 16  1  1
 13 17  1  6
M  END
>  <%Rank>  (1365) 
nan

>  <N_hits>  (1365) 
2

>  <submitter_name>  (1365) 
nan

>  <original SMILES>  (1365) 
nan

>  <∆G_unbound>  (1365) 
0.708369

>  <∆G_bound>  (1365) 
-0.047652

>  <regarded>  (1365) 
5CMS_0_R_α,5CB5_0_Q_α

>  <ref_pdb>  (1365) 
nan

>  <smiles>  (1365) 
OC1OC(CC2OC(O)C(O)C2O)C(O)C1O

>  <submitter_email>  (1365) 
nan

>  <disregarded>  (1365) 


>  <LE>  (1365) 
-0.044472

>  <submitter_institution>  (1365) 
nan

>  <ref_mols>  (1365) 
5CMS_0_R,5CB5_0_Q

>  <N_constrained_atoms>  (1365) 
17.0

>  <ref_url>  (1365) 
nan

>  <method>  (1365) 
nan

>  <comRMSD>  (1365) 
nan

>  <N_unconstrained_atoms>  (1365) 
0.0

>  <∆∆G>  (1365) 
-0.756021

>  <runtime>  (1365) 
52.527858

>  <generation_date>  (1365) 
nan

$$$$
mArh-4iqy_A_0_A_γ-5CB5_0_R_δ
     RDKit          3D

 17 19  0  0  0  0  0  0  0  0999 V2000
   -1.2650   12.6000   -3.4790 O   0  0  0  0  0  0  0  0  0  0  0  0
   -0.5050   13.7810   -3.2490 C   0  0  2  0  0  0  0  0  0  0  0  0
   -1.2490   14.9750   -2.6200 C   0  0  2  0  0  0  0  0  0  0  0  0
    0.0720   14.2820   -4.5730 C   0  0  2  0  0  0  0  0  0  0  0  0
    1.4620   14.0050   -4.6520 O   0  0  0  0  0  0  0  0  0  0  0  0
   -0.7130   16.1510   -3.2890 O   0  0  0  0  0  0  0  0  0  0  0  0
   -0.3250   15.7630   -4.6230 C   0  0  1  0  0  0  0  0  0  0  0  0
   -1.1240   15.2300   -1.0920 C   0  0  1  0  0  0  0  0  0  0  0  0
   -2.8000   14.8600   -2.7860 C   0  0  0  0  0  0  0  0  0  0  0  0
    0.7320   16.7350   -5.1390 C   0  0  0  0  0  0  0  0  0  0  0  0
   -2.5860   15.5000   -0.6600 C   0  0  1  0  0  0  0  0  0  0  0  0
   -3.3830   14.5780   -1.4520 N   0  0  0  0  0  0  0  0  0  0  0  0
   -0.4320   14.2530   -0.2550 N   0  0  0  0  0  0  0  0  0  0  0  0
   -0.4400   14.6790    1.1200 C   0  0  0  0  0  0  0  0  0  0  0  0
   -2.7160   15.5230    0.8860 C   0  0  1  0  0  0  0  0  0  0  0  0
   -4.0560   15.2400    1.3580 N   0  0  0  0  0  0  0  0  0  0  0  0
   -1.7970   14.6870    1.6210 N   0  0  0  0  0  0  0  0  0  0  0  0
  2  1  1  6
  2  3  1  0
  2  4  1  0
  4  5  1  1
  3  6  1  0
  4  7  1  0
  6  7  1  0
  3  8  1  0
  3  9  1  1
  7 10  1  1
  8 11  1  0
  9 12  1  0
 11 12  1  6
  8 13  1  1
 13 14  1  0
 11 15  1  0
 15 16  1  6
 14 17  1  0
 15 17  1  0
M  END
>  <%Rank>  (1366) 
nan

>  <N_hits>  (1366) 
2

>  <submitter_name>  (1366) 
nan

>  <original SMILES>  (1366) 
nan

>  <∆G_unbound>  (1366) 
0.631637

>  <∆G_bound>  (1366) 
-3.86919

>  <regarded>  (1366) 
mArh-4iqy_A_0_A_γ,5CB5_0_R_δ

>  <ref_pdb>  (1366) 
nan

>  <smiles>  (1366) 
CC1OC2(CNC3C(N)NCNC32)C(O)C1O

>  <submitter_email>  (1366) 
nan

>  <disregarded>  (1366) 


>  <LE>  (1366) 
-0.264754

>  <submitter_institution>  (1366) 
nan

>  <ref_mols>  (1366) 
mArh-4iqy_A_0_A,5CB5_0_R

>  <N_constrained_atoms>  (1366) 
17.0

>  <ref_url>  (1366) 
nan

>  <method>  (1366) 
nan

>  <comRMSD>  (1366) 
nan

>  <N_unconstrained_atoms>  (1366) 
0.0

>  <∆∆G>  (1366) 
-4.500826

>  <runtime>  (1366) 
29.31012

>  <generation_date>  (1366) 
nan

$$$$
5CB5_0_H_δ-mArh-5cb5_O_0_O_γ
     RDKit          3D

 17 19  0  0  0  0  0  0  0  0999 V2000
   -3.7950   15.6500    1.6330 N   0  0  0  0  0  0  0  0  0  0  0  0
   -2.8180   14.9070    0.8500 C   0  0  1  0  0  0  0  0  0  0  0  0
   -2.5640   15.4350   -0.5770 C   0  0  1  0  0  0  0  0  0  0  0  0
   -1.5930   14.8550    1.6260 N   0  0  0  0  0  0  0  0  0  0  0  0
   -1.4400   14.5640   -1.1400 C   0  0  1  0  0  0  0  0  0  0  0  0
   -3.6440   15.3070   -1.5700 N   0  0  0  0  0  0  0  0  0  0  0  0
   -0.3930   15.3370    0.9180 C   0  0  0  0  0  0  0  0  0  0  0  0
   -1.4370   14.9030   -2.6610 C   0  0  1  0  0  0  0  0  0  0  0  0
   -2.9380   15.2210   -2.8850 C   0  0  0  0  0  0  0  0  0  0  0  0
   -0.2280   14.7350   -0.3790 N   0  0  0  0  0  0  0  0  0  0  0  0
   -0.5900   16.0870   -2.9470 O   0  0  0  0  0  0  0  0  0  0  0  0
   -0.8060   13.8650   -3.6430 C   0  0  1  0  0  0  0  0  0  0  0  0
   -1.5990   12.8110   -4.1400 O   0  0  0  0  0  0  0  0  0  0  0  0
   -0.3990   16.1040   -4.3830 C   0  0  2  0  0  0  0  0  0  0  0  0
   -0.1800   14.6520   -4.7970 C   0  0  1  0  0  0  0  0  0  0  0  0
    0.7020   17.0560   -4.8310 C   0  0  0  0  0  0  0  0  0  0  0  0
    1.1820   14.2700   -4.9970 O   0  0  0  0  0  0  0  0  0  0  0  0
  2  1  1  1
  2  3  1  0
  2  4  1  0
  3  5  1  0
  3  6  1  6
  4  7  1  0
  5  8  1  0
  6  9  1  0
  8  9  1  6
  5 10  1  1
  7 10  1  0
  8 11  1  0
  8 12  1  0
 12 13  1  6
 11 14  1  0
 12 15  1  0
 14 15  1  0
 14 16  1  1
 15 17  1  1
M  END
>  <%Rank>  (1367) 
nan

>  <N_hits>  (1367) 
2

>  <submitter_name>  (1367) 
nan

>  <original SMILES>  (1367) 
nan

>  <∆G_unbound>  (1367) 
0.690665

>  <∆G_bound>  (1367) 
-3.040526

>  <regarded>  (1367) 
5CB5_0_H_δ,mArh-5cb5_O_0_O_γ

>  <ref_pdb>  (1367) 
nan

>  <smiles>  (1367) 
CC1OC2(CNC3C(N)NCNC32)C(O)C1O

>  <submitter_email>  (1367) 
nan

>  <disregarded>  (1367) 


>  <LE>  (1367) 
-0.219482

>  <submitter_institution>  (1367) 
nan

>  <ref_mols>  (1367) 
5CB5_0_H,mArh-5cb5_O_0_O

>  <N_constrained_atoms>  (1367) 
17.0

>  <ref_url>  (1367) 
nan

>  <method>  (1367) 
nan

>  <comRMSD>  (1367) 
nan

>  <N_unconstrained_atoms>  (1367) 
0.0

>  <∆∆G>  (1367) 
-3.731191

>  <runtime>  (1367) 
29.84014

>  <generation_date>  (1367) 
nan

$$$$
mArh-2fav_B_0_B_γ-5DUS_0_A_γ
     RDKit          3D

  9  9  0  0  0  0  0  0  0  0999 V2000
   -0.5170   12.5800   -5.1310 O   0  0  0  0  0  0  0  0  0  0  0  0
    0.2870   13.2680   -4.1820 C   0  0  2  0  0  0  0  0  0  0  0  0
   -0.5300   14.1200   -3.2380 C   0  0  2  0  0  0  0  0  0  0  0  0
    1.2350   14.2240   -4.8750 C   0  0  2  0  0  0  0  0  0  0  0  0
    2.5190   13.6320   -4.8110 O   0  0  0  0  0  0  0  0  0  0  0  0
   -1.8650   14.1050   -3.7180 O   0  0  0  0  0  0  0  0  0  0  0  0
   -0.0070   15.4550   -3.2220 O   0  0  0  0  0  0  0  0  0  0  0  0
    1.1140   15.5470   -4.1190 C   0  0  2  0  0  0  0  0  0  0  0  0
    0.9090   16.7620   -5.0170 C   0  0  0  0  0  0  0  0  0  0  0  0
  2  1  1  6
  2  3  1  0
  2  4  1  0
  4  5  1  1
  3  6  1  6
  3  7  1  0
  4  8  1  0
  7  8  1  0
  8  9  1  6
M  END
>  <%Rank>  (1368) 
nan

>  <N_hits>  (1368) 
2

>  <submitter_name>  (1368) 
nan

>  <original SMILES>  (1368) 
nan

>  <∆G_unbound>  (1368) 
0.027418

>  <∆G_bound>  (1368) 
-3.231575

>  <regarded>  (1368) 
mArh-2fav_B_0_B_γ,5DUS_0_A_γ

>  <ref_pdb>  (1368) 
nan

>  <smiles>  (1368) 
CC1OC(O)C(O)C1O

>  <submitter_email>  (1368) 
nan

>  <disregarded>  (1368) 


>  <LE>  (1368) 
-0.36211

>  <submitter_institution>  (1368) 
nan

>  <ref_mols>  (1368) 
mArh-2fav_B_0_B,5DUS_0_A

>  <N_constrained_atoms>  (1368) 
9.0

>  <ref_url>  (1368) 
nan

>  <method>  (1368) 
nan

>  <comRMSD>  (1368) 
nan

>  <N_unconstrained_atoms>  (1368) 
0.0

>  <∆∆G>  (1368) 
-3.258993

>  <runtime>  (1368) 
23.058475

>  <generation_date>  (1368) 
nan

$$$$
mArh-3q6z_0_A_α-mArh-5cms_M_12_M_α
     RDKit          3D

 17 18  0  0  0  0  0  0  0  0999 V2000
   -2.7690   22.1110   -9.0020 C   0  0  0  0  0  0  0  0  0  0  0  0
   -4.0680   21.8080   -8.3620 C   0  0  2  0  0  0  0  0  0  0  0  0
   -4.9240   23.0300   -8.0460 C   0  0  2  0  0  0  0  0  0  0  0  0
   -2.9720   22.8570  -10.2540 C   0  0  2  0  0  0  0  0  0  0  0  0
   -3.8330   21.1290   -7.1170 O   0  0  0  0  0  0  0  0  0  0  0  0
   -3.1730   21.9990  -11.3410 O   0  0  0  0  0  0  0  0  0  0  0  0
   -2.0800   23.8980  -10.8390 C   0  0  1  0  0  0  0  0  0  0  0  0
   -4.6310   24.1380   -8.8810 O   0  0  0  0  0  0  0  0  0  0  0  0
   -1.0040   23.3720  -11.6070 O   0  0  0  0  0  0  0  0  0  0  0  0
   -4.5430   23.2240   -6.6150 C   0  0  2  0  0  0  0  0  0  0  0  0
   -4.7500   21.7660   -6.2520 C   0  0  1  0  0  0  0  0  0  0  0  0
   -3.8690   22.9590  -12.1210 C   0  0  2  0  0  0  0  0  0  0  0  0
   -3.1720   24.3470  -11.8070 C   0  0  2  0  0  0  0  0  0  0  0  0
   -5.4580   24.1200   -5.9830 O   0  0  0  0  0  0  0  0  0  0  0  0
   -6.0670   21.3560   -6.5670 O   0  0  0  0  0  0  0  0  0  0  0  0
   -5.2140   22.9180  -11.6750 O   0  0  0  0  0  0  0  0  0  0  0  0
   -2.6330   25.0150  -12.9430 O   0  0  0  0  0  0  0  0  0  0  0  0
  2  1  1  1
  2  3  1  0
  4  1  1  1
  2  5  1  0
  4  6  1  0
  4  7  1  0
  3  8  1  6
  7  9  1  6
  3 10  1  0
  5 11  1  0
 10 11  1  0
  6 12  1  0
  7 13  1  0
 12 13  1  0
 10 14  1  1
 11 15  1  6
 12 16  1  1
 13 17  1  6
M  END
>  <%Rank>  (1369) 
nan

>  <N_hits>  (1369) 
2

>  <submitter_name>  (1369) 
nan

>  <original SMILES>  (1369) 
nan

>  <∆G_unbound>  (1369) 
1.082033

>  <∆G_bound>  (1369) 
-5.134423

>  <regarded>  (1369) 
mArh-3q6z_0_A_α,mArh-5cms_M_12_M_α

>  <ref_pdb>  (1369) 
nan

>  <smiles>  (1369) 
OC1OC(CC2OC(O)C(O)C2O)C(O)C1O

>  <submitter_email>  (1369) 
nan

>  <disregarded>  (1369) 


>  <LE>  (1369) 
-0.365674

>  <submitter_institution>  (1369) 
nan

>  <ref_mols>  (1369) 
mArh-3q6z_0_A,mArh-5cms_M_12_M

>  <N_constrained_atoms>  (1369) 
17.0

>  <ref_url>  (1369) 
nan

>  <method>  (1369) 
nan

>  <comRMSD>  (1369) 
nan

>  <N_unconstrained_atoms>  (1369) 
0.0

>  <∆∆G>  (1369) 
-6.216456

>  <runtime>  (1369) 
29.340572

>  <generation_date>  (1369) 
nan

$$$$
5CB5_0_B_δ-5CMS_0_G_γ
     RDKit          3D

 10 11  0  0  0  0  0  0  0  0999 V2000
   -3.9210   15.5180    1.7680 N   0  0  0  0  0  0  0  0  0  0  0  0
   -2.6930   15.4580    0.9930 C   0  0  2  0  0  0  0  0  0  0  0  0
   -2.8850   14.8690   -0.3790 C   0  0  2  0  0  0  0  0  0  0  0  0
   -1.6730   14.7460    1.7250 N   0  0  0  0  0  0  0  0  0  0  0  0
   -1.5420   15.1460   -1.0060 C   0  0  2  0  0  0  0  0  0  0  0  0
   -3.8100   15.4780   -1.3310 N   0  0  0  0  0  0  0  0  0  0  0  0
   -0.3840   14.6370    1.0380 C   0  0  0  0  0  0  0  0  0  0  0  0
   -1.7900   14.7680   -2.3680 N   0  0  0  0  0  0  0  0  0  0  0  0
   -3.1560   15.2270   -2.6180 C   0  0  0  0  0  0  0  0  0  0  0  0
   -0.4980   14.3760   -0.3920 N   0  0  0  0  0  0  0  0  0  0  0  0
  2  1  1  1
  2  3  1  0
  2  4  1  0
  3  5  1  0
  3  6  1  6
  4  7  1  0
  5  8  1  6
  6  9  1  0
  8  9  1  0
  5 10  1  0
  7 10  1  0
M  END
>  <%Rank>  (1370) 
nan

>  <N_hits>  (1370) 
2

>  <submitter_name>  (1370) 
nan

>  <original SMILES>  (1370) 
nan

>  <∆G_unbound>  (1370) 
0.213408

>  <∆G_bound>  (1370) 
-1.477722

>  <regarded>  (1370) 
5CB5_0_B_δ,5CMS_0_G_γ

>  <ref_pdb>  (1370) 
nan

>  <smiles>  (1370) 
NC1NCNC2NCNC12

>  <submitter_email>  (1370) 
nan

>  <disregarded>  (1370) 


>  <LE>  (1370) 
-0.169113

>  <submitter_institution>  (1370) 
nan

>  <ref_mols>  (1370) 
5CB5_0_B,5CMS_0_G

>  <N_constrained_atoms>  (1370) 
10.0

>  <ref_url>  (1370) 
nan

>  <method>  (1370) 
nan

>  <comRMSD>  (1370) 
nan

>  <N_unconstrained_atoms>  (1370) 
0.0

>  <∆∆G>  (1370) 
-1.691131

>  <runtime>  (1370) 
25.753399

>  <generation_date>  (1370) 
nan

$$$$
mArh-3q6z_0_A_α-3Q6Z_0_A_α
     RDKit          3D

  9  9  0  0  0  0  0  0  0  0999 V2000
   -2.0950   22.3110   -7.7830 C   0  0  0  0  0  0  0  0  0  0  0  0
   -3.4010   21.8350   -8.4000 C   0  0  2  0  0  0  0  0  0  0  0  0
   -4.4630   22.8710   -8.7890 C   0  0  2  0  0  0  0  0  0  0  0  0
   -4.0640   20.9220   -7.4970 O   0  0  0  0  0  0  0  0  0  0  0  0
   -4.0680   24.1460   -9.1650 O   0  0  0  0  0  0  0  0  0  0  0  0
   -5.4820   22.8360   -7.6800 C   0  0  1  0  0  0  0  0  0  0  0  0
   -5.4260   21.3580   -7.3710 C   0  0  2  0  0  0  0  0  0  0  0  0
   -5.2140   23.6190   -6.5020 O   0  0  0  0  0  0  0  0  0  0  0  0
   -5.8690   21.2690   -6.0570 O   0  0  0  0  0  0  0  0  0  0  0  0
  2  1  1  1
  2  3  1  0
  2  4  1  0
  3  5  1  1
  3  6  1  0
  4  7  1  0
  6  7  1  0
  6  8  1  1
  7  9  1  1
M  END
>  <%Rank>  (1371) 
nan

>  <N_hits>  (1371) 
2

>  <submitter_name>  (1371) 
nan

>  <original SMILES>  (1371) 
nan

>  <∆G_unbound>  (1371) 
0.043969

>  <∆G_bound>  (1371) 
-5.620363

>  <regarded>  (1371) 
mArh-3q6z_0_A_α,3Q6Z_0_A_α

>  <ref_pdb>  (1371) 
nan

>  <smiles>  (1371) 
CC1OC(O)C(O)C1O

>  <submitter_email>  (1371) 
nan

>  <disregarded>  (1371) 


>  <LE>  (1371) 
-0.62937

>  <submitter_institution>  (1371) 
nan

>  <ref_mols>  (1371) 
mArh-3q6z_0_A,3Q6Z_0_A

>  <N_constrained_atoms>  (1371) 
9.0

>  <ref_url>  (1371) 
nan

>  <method>  (1371) 
nan

>  <comRMSD>  (1371) 
nan

>  <N_unconstrained_atoms>  (1371) 
0.0

>  <∆∆G>  (1371) 
-5.664332

>  <runtime>  (1371) 
26.336929

>  <generation_date>  (1371) 
nan

$$$$
mArh-5cms_K_10_K_α-5CMS_0_F_α
     RDKit          3D

 10 10  0  0  0  0  0  0  0  0999 V2000
   -2.6110   21.8790   -9.6890 C   0  0  0  0  0  0  0  0  0  0  0  0
   -2.1840   22.4070  -11.0470 C   0  0  1  0  0  0  0  0  0  0  0  0
   -3.1800   22.0320  -11.9840 O   0  0  0  0  0  0  0  0  0  0  0  0
   -2.1430   23.9210  -11.0430 C   0  0  0  0  0  0  0  0  0  0  0  0
   -1.3700   24.4640  -10.0210 O   0  0  0  0  0  0  0  0  0  0  0  0
   -1.6670   24.5780  -12.2100 O   0  0  0  0  0  0  0  0  0  0  0  0
   -4.1680   23.0440  -11.9170 C   0  0  2  0  0  0  0  0  0  0  0  0
   -3.6420   24.1730  -11.0160 C   0  0  2  0  0  0  0  0  0  0  0  0
   -5.3550   22.4820  -11.4060 O   0  0  0  0  0  0  0  0  0  0  0  0
   -3.9080   25.4610  -11.5690 O   0  0  0  0  0  0  0  0  0  0  0  0
  2  1  1  1
  2  3  1  0
  2  4  1  0
  4  5  1  0
  4  6  1  0
  3  7  1  0
  4  8  1  0
  7  8  1  0
  7  9  1  1
  8 10  1  6
M  END
>  <%Rank>  (1372) 
nan

>  <N_hits>  (1372) 
2

>  <submitter_name>  (1372) 
nan

>  <original SMILES>  (1372) 
nan

>  <∆G_unbound>  (1372) 
0.056816

>  <∆G_bound>  (1372) 
-2.299123

>  <regarded>  (1372) 
mArh-5cms_K_10_K_α,5CMS_0_F_α

>  <ref_pdb>  (1372) 
nan

>  <smiles>  (1372) 
CC1OC(O)C(O)C1(O)O

>  <submitter_email>  (1372) 
nan

>  <disregarded>  (1372) 


>  <LE>  (1372) 
-0.235594

>  <submitter_institution>  (1372) 
nan

>  <ref_mols>  (1372) 
mArh-5cms_K_10_K,5CMS_0_F

>  <N_constrained_atoms>  (1372) 
10.0

>  <ref_url>  (1372) 
nan

>  <method>  (1372) 
nan

>  <comRMSD>  (1372) 
nan

>  <N_unconstrained_atoms>  (1372) 
0.0

>  <∆∆G>  (1372) 
-2.355939

>  <runtime>  (1372) 
26.046073

>  <generation_date>  (1372) 
nan

$$$$
5CMS_0_Q_δ-6MEA_0_B_δ
     RDKit          3D

 10 11  0  0  0  0  0  0  0  0999 V2000
   -4.2710   15.5800    1.7490 N   0  0  0  0  0  0  0  0  0  0  0  0
   -3.0370   15.5380    0.9910 C   0  0  2  0  0  0  0  0  0  0  0  0
   -3.1670   14.8750   -0.3690 C   0  0  2  0  0  0  0  0  0  0  0  0
   -2.0070   14.8820    1.7660 N   0  0  0  0  0  0  0  0  0  0  0  0
   -1.7960   15.1110   -0.9650 C   0  0  2  0  0  0  0  0  0  0  0  0
   -4.0380   15.4300   -1.4000 N   0  0  0  0  0  0  0  0  0  0  0  0
   -0.6910   14.9120    1.1200 C   0  0  0  0  0  0  0  0  0  0  0  0
   -2.0000   14.5890   -2.2880 N   0  0  0  0  0  0  0  0  0  0  0  0
   -3.3330   15.0810   -2.6400 C   0  0  0  0  0  0  0  0  0  0  0  0
   -0.7550   14.4300   -0.2460 N   0  0  0  0  0  0  0  0  0  0  0  0
  2  1  1  1
  2  3  1  0
  2  4  1  0
  3  5  1  0
  3  6  1  6
  4  7  1  0
  5  8  1  6
  6  9  1  0
  8  9  1  0
  5 10  1  0
  7 10  1  0
M  END
>  <%Rank>  (1373) 
nan

>  <N_hits>  (1373) 
2

>  <submitter_name>  (1373) 
nan

>  <original SMILES>  (1373) 
nan

>  <∆G_unbound>  (1373) 
0.213408

>  <∆G_bound>  (1373) 
-1.597213

>  <regarded>  (1373) 
5CMS_0_Q_δ,6MEA_0_B_δ

>  <ref_pdb>  (1373) 
nan

>  <smiles>  (1373) 
NC1NCNC2NCNC12

>  <submitter_email>  (1373) 
nan

>  <disregarded>  (1373) 


>  <LE>  (1373) 
-0.181062

>  <submitter_institution>  (1373) 
nan

>  <ref_mols>  (1373) 
5CMS_0_Q,6MEA_0_B

>  <N_constrained_atoms>  (1373) 
10.0

>  <ref_url>  (1373) 
nan

>  <method>  (1373) 
nan

>  <comRMSD>  (1373) 
nan

>  <N_unconstrained_atoms>  (1373) 
0.0

>  <∆∆G>  (1373) 
-1.810622

>  <runtime>  (1373) 
26.085164

>  <generation_date>  (1373) 
nan

$$$$
5CMS_0_M_γ-mArh-5cms_E_5_E_γ
     RDKit          3D

  8  8  0  0  0  0  0  0  0  0999 V2000
   -0.8510   12.1800   -4.2800 O   0  0  0  0  0  0  0  0  0  0  0  0
   -1.0530   13.5870   -4.3560 C   0  0  1  0  0  0  0  0  0  0  0  0
   -0.8140   14.2910   -3.0200 C   0  0  0  0  0  0  0  0  0  0  0  0
    0.0340   14.2050   -5.1970 C   0  0  2  0  0  0  0  0  0  0  0  0
    1.2880   13.5850   -4.9390 O   0  0  0  0  0  0  0  0  0  0  0  0
   -0.1450   15.5410   -3.3180 O   0  0  0  0  0  0  0  0  0  0  0  0
   -0.1560   15.6510   -4.7490 C   0  0  1  0  0  0  0  0  0  0  0  0
    0.8230   16.7060   -5.2320 C   0  0  0  0  0  0  0  0  0  0  0  0
  2  1  1  1
  2  3  1  0
  2  4  1  0
  4  5  1  1
  3  6  1  0
  4  7  1  0
  6  7  1  0
  7  8  1  1
M  END
>  <%Rank>  (1374) 
nan

>  <N_hits>  (1374) 
2

>  <submitter_name>  (1374) 
nan

>  <original SMILES>  (1374) 
nan

>  <∆G_unbound>  (1374) 
0.021216

>  <∆G_bound>  (1374) 
-2.846319

>  <regarded>  (1374) 
5CMS_0_M_γ,mArh-5cms_E_5_E_γ

>  <ref_pdb>  (1374) 
nan

>  <smiles>  (1374) 
CC1OCC(O)C1O

>  <submitter_email>  (1374) 
nan

>  <disregarded>  (1374) 


>  <LE>  (1374) 
-0.358442

>  <submitter_institution>  (1374) 
nan

>  <ref_mols>  (1374) 
5CMS_0_M,mArh-5cms_E_5_E

>  <N_constrained_atoms>  (1374) 
8.0

>  <ref_url>  (1374) 
nan

>  <method>  (1374) 
nan

>  <comRMSD>  (1374) 
nan

>  <N_unconstrained_atoms>  (1374) 
0.0

>  <∆∆G>  (1374) 
-2.867536

>  <runtime>  (1374) 
23.222122

>  <generation_date>  (1374) 
nan

$$$$
5CB5_0_F_δ-2FAV_0_B_γ
     RDKit          3D

 17 19  0  0  0  0  0  0  0  0999 V2000
   -3.5840   15.1340    1.4310 N   0  0  0  0  0  0  0  0  0  0  0  0
   -2.4280   14.4530    0.8710 C   0  0  1  0  0  0  0  0  0  0  0  0
   -2.2830   14.5950   -0.6670 C   0  0  1  0  0  0  0  0  0  0  0  0
   -1.3240   15.0900    1.5450 N   0  0  0  0  0  0  0  0  0  0  0  0
   -0.8740   14.1790   -1.1200 C   0  0  1  0  0  0  0  0  0  0  0  0
   -3.1350   13.9130   -1.6240 N   0  0  0  0  0  0  0  0  0  0  0  0
   -0.0280   14.6570    1.0720 C   0  0  0  0  0  0  0  0  0  0  0  0
   -0.9390   14.3970   -2.6690 C   0  0  1  0  0  0  0  0  0  0  0  0
   -2.4890   14.4470   -2.8640 C   0  0  0  0  0  0  0  0  0  0  0  0
    0.1090   14.9050   -0.3410 N   0  0  0  0  0  0  0  0  0  0  0  0
   -0.2640   15.6740   -2.9560 O   0  0  0  0  0  0  0  0  0  0  0  0
   -0.1960   13.4350   -3.6660 C   0  0  1  0  0  0  0  0  0  0  0  0
   -0.9620   12.5040   -4.4010 O   0  0  0  0  0  0  0  0  0  0  0  0
    0.0450   15.6820   -4.3560 C   0  0  2  0  0  0  0  0  0  0  0  0
    0.6220   14.3090   -4.6370 C   0  0  1  0  0  0  0  0  0  0  0  0
    0.9250   16.8600   -4.7350 C   0  0  0  0  0  0  0  0  0  0  0  0
    2.0250   14.1680   -4.4210 O   0  0  0  0  0  0  0  0  0  0  0  0
  2  1  1  1
  2  3  1  0
  2  4  1  0
  3  5  1  0
  3  6  1  6
  4  7  1  0
  5  8  1  0
  6  9  1  0
  8  9  1  6
  5 10  1  1
  7 10  1  0
  8 11  1  0
  8 12  1  0
 12 13  1  6
 11 14  1  0
 12 15  1  0
 14 15  1  0
 14 16  1  1
 15 17  1  1
M  END
>  <%Rank>  (1375) 
nan

>  <N_hits>  (1375) 
2

>  <submitter_name>  (1375) 
nan

>  <original SMILES>  (1375) 
nan

>  <∆G_unbound>  (1375) 
0.690665

>  <∆G_bound>  (1375) 
-3.274364

>  <regarded>  (1375) 
5CB5_0_F_δ,2FAV_0_B_γ

>  <ref_pdb>  (1375) 
nan

>  <smiles>  (1375) 
CC1OC2(CNC3C(N)NCNC32)C(O)C1O

>  <submitter_email>  (1375) 
nan

>  <disregarded>  (1375) 


>  <LE>  (1375) 
-0.233237

>  <submitter_institution>  (1375) 
nan

>  <ref_mols>  (1375) 
5CB5_0_F,2FAV_0_B

>  <N_constrained_atoms>  (1375) 
17.0

>  <ref_url>  (1375) 
nan

>  <method>  (1375) 
nan

>  <comRMSD>  (1375) 
nan

>  <N_unconstrained_atoms>  (1375) 
0.0

>  <∆∆G>  (1375) 
-3.965029

>  <runtime>  (1375) 
31.65673

>  <generation_date>  (1375) 
nan

$$$$
5CMS_0_G_γ-mArh-6fx_7_0A_γ
     RDKit          3D

 17 19  0  0  0  0  0  0  0  0999 V2000
   -3.6560   15.5700    1.7950 N   0  0  0  0  0  0  0  0  0  0  0  0
   -2.7570   14.8010    0.9590 C   0  0  1  0  0  0  0  0  0  0  0  0
   -2.6090   15.3290   -0.4790 C   0  0  1  0  0  0  0  0  0  0  0  0
   -1.4780   14.7760    1.6460 N   0  0  0  0  0  0  0  0  0  0  0  0
   -1.4890   14.5100   -1.1220 C   0  0  1  0  0  0  0  0  0  0  0  0
   -3.7490   15.1540   -1.3940 N   0  0  0  0  0  0  0  0  0  0  0  0
   -0.3660   15.3430    0.8740 C   0  0  0  0  0  0  0  0  0  0  0  0
   -1.6200   14.8590   -2.6400 C   0  0  1  0  0  0  0  0  0  0  0  0
   -3.1230   15.2200   -2.7410 C   0  0  0  0  0  0  0  0  0  0  0  0
   -0.2330   14.7470   -0.4340 N   0  0  0  0  0  0  0  0  0  0  0  0
   -0.7670   16.0190   -2.9880 O   0  0  0  0  0  0  0  0  0  0  0  0
   -1.1820   13.8110   -3.6940 C   0  0  1  0  0  0  0  0  0  0  0  0
   -2.1500   12.9000   -4.1740 O   0  0  0  0  0  0  0  0  0  0  0  0
   -0.6390   16.0350   -4.4290 C   0  0  2  0  0  0  0  0  0  0  0  0
   -0.5600   14.5720   -4.8660 C   0  0  1  0  0  0  0  0  0  0  0  0
    0.5320   16.8840   -4.9020 C   0  0  0  0  0  0  0  0  0  0  0  0
    0.7520   14.0920   -5.1470 O   0  0  0  0  0  0  0  0  0  0  0  0
  2  1  1  1
  2  3  1  0
  2  4  1  0
  3  5  1  0
  3  6  1  6
  4  7  1  0
  5  8  1  0
  6  9  1  0
  8  9  1  6
  5 10  1  1
  7 10  1  0
  8 11  1  0
  8 12  1  0
 12 13  1  6
 11 14  1  0
 12 15  1  0
 14 15  1  0
 14 16  1  1
 15 17  1  1
M  END
>  <%Rank>  (1376) 
nan

>  <N_hits>  (1376) 
2

>  <submitter_name>  (1376) 
nan

>  <original SMILES>  (1376) 
nan

>  <∆G_unbound>  (1376) 
0.690665

>  <∆G_bound>  (1376) 
-3.05309

>  <regarded>  (1376) 
5CMS_0_G_γ,mArh-6fx_7_0A_γ

>  <ref_pdb>  (1376) 
nan

>  <smiles>  (1376) 
CC1OC2(CNC3C(N)NCNC32)C(O)C1O

>  <submitter_email>  (1376) 
nan

>  <disregarded>  (1376) 


>  <LE>  (1376) 
-0.220221

>  <submitter_institution>  (1376) 
nan

>  <ref_mols>  (1376) 
5CMS_0_G,mArh-6fx_7_0A

>  <N_constrained_atoms>  (1376) 
17.0

>  <ref_url>  (1376) 
nan

>  <method>  (1376) 
nan

>  <comRMSD>  (1376) 
nan

>  <N_unconstrained_atoms>  (1376) 
0.0

>  <∆∆G>  (1376) 
-3.743755

>  <runtime>  (1376) 
28.97368

>  <generation_date>  (1376) 
nan

$$$$
mArh-5cb5_K_0_K_γ-5CB5_0_E_γ
     RDKit          3D

  8  8  0  0  0  0  0  0  0  0999 V2000
   -0.4320   12.3770   -3.8560 O   0  0  0  0  0  0  0  0  0  0  0  0
   -0.9160   13.6760   -4.1730 C   0  0  1  0  0  0  0  0  0  0  0  0
   -0.8320   14.6250   -2.9840 C   0  0  0  0  0  0  0  0  0  0  0  0
    0.0160   14.3250   -5.1730 C   0  0  2  0  0  0  0  0  0  0  0  0
    1.3400   13.8360   -5.0240 O   0  0  0  0  0  0  0  0  0  0  0  0
   -0.3190   15.8870   -3.4640 O   0  0  0  0  0  0  0  0  0  0  0  0
   -0.2160   15.8100   -4.8870 C   0  0  1  0  0  0  0  0  0  0  0  0
    0.8180   16.8040   -5.3910 C   0  0  0  0  0  0  0  0  0  0  0  0
  2  1  1  1
  2  3  1  0
  2  4  1  0
  4  5  1  1
  3  6  1  0
  4  7  1  0
  6  7  1  0
  7  8  1  1
M  END
>  <%Rank>  (1377) 
nan

>  <N_hits>  (1377) 
2

>  <submitter_name>  (1377) 
nan

>  <original SMILES>  (1377) 
nan

>  <∆G_unbound>  (1377) 
0.021216

>  <∆G_bound>  (1377) 
-2.804001

>  <regarded>  (1377) 
mArh-5cb5_K_0_K_γ,5CB5_0_E_γ

>  <ref_pdb>  (1377) 
nan

>  <smiles>  (1377) 
CC1OCC(O)C1O

>  <submitter_email>  (1377) 
nan

>  <disregarded>  (1377) 


>  <LE>  (1377) 
-0.353152

>  <submitter_institution>  (1377) 
nan

>  <ref_mols>  (1377) 
mArh-5cb5_K_0_K,5CB5_0_E

>  <N_constrained_atoms>  (1377) 
8.0

>  <ref_url>  (1377) 
nan

>  <method>  (1377) 
nan

>  <comRMSD>  (1377) 
nan

>  <N_unconstrained_atoms>  (1377) 
0.0

>  <∆∆G>  (1377) 
-2.825218

>  <runtime>  (1377) 
21.350872

>  <generation_date>  (1377) 
nan

$$$$
5CB5_0_R_γ-5CB5_0_E_δ
     RDKit          3D

 17 19  0  0  0  0  0  0  0  0999 V2000
   -1.4750   12.8170   -3.9050 O   0  0  0  0  0  0  0  0  0  0  0  0
   -0.6600   13.9080   -3.4960 C   0  0  2  0  0  0  0  0  0  0  0  0
   -1.3560   15.0610   -2.7310 C   0  0  2  0  0  0  0  0  0  0  0  0
   -0.0070   14.5300   -4.7320 C   0  0  2  0  0  0  0  0  0  0  0  0
    1.3750   14.2090   -4.7920 O   0  0  0  0  0  0  0  0  0  0  0  0
   -0.7590   16.2740   -3.2700 O   0  0  0  0  0  0  0  0  0  0  0  0
   -0.3470   16.0220   -4.6290 C   0  0  1  0  0  0  0  0  0  0  0  0
   -1.2280   15.1840   -1.1810 C   0  0  1  0  0  0  0  0  0  0  0  0
   -2.9130   15.0460   -2.9020 C   0  0  0  0  0  0  0  0  0  0  0  0
    0.7550   17.0040   -4.9960 C   0  0  0  0  0  0  0  0  0  0  0  0
   -2.6420   15.5710   -0.7220 C   0  0  1  0  0  0  0  0  0  0  0  0
   -3.5400   14.8040   -1.5790 N   0  0  0  0  0  0  0  0  0  0  0  0
   -0.6720   14.0890   -0.3950 N   0  0  0  0  0  0  0  0  0  0  0  0
   -0.4230   14.4990    0.9750 C   0  0  0  0  0  0  0  0  0  0  0  0
   -2.7470   15.4250    0.8190 C   0  0  1  0  0  0  0  0  0  0  0  0
   -3.5300   14.2940    1.2290 N   0  0  0  0  0  0  0  0  0  0  0  0
   -1.4700   15.3420    1.4990 N   0  0  0  0  0  0  0  0  0  0  0  0
  2  1  1  6
  2  3  1  0
  2  4  1  0
  4  5  1  1
  3  6  1  0
  4  7  1  0
  6  7  1  0
  3  8  1  0
  3  9  1  1
  7 10  1  1
  8 11  1  0
  9 12  1  0
 11 12  1  6
  8 13  1  1
 13 14  1  0
 11 15  1  0
 15 16  1  6
 14 17  1  0
 15 17  1  0
M  END
>  <%Rank>  (1378) 
nan

>  <N_hits>  (1378) 
2

>  <submitter_name>  (1378) 
nan

>  <original SMILES>  (1378) 
nan

>  <∆G_unbound>  (1378) 
0.631637

>  <∆G_bound>  (1378) 
-3.864431

>  <regarded>  (1378) 
5CB5_0_R_γ,5CB5_0_E_δ

>  <ref_pdb>  (1378) 
nan

>  <smiles>  (1378) 
CC1OC2(CNC3C(N)NCNC32)C(O)C1O

>  <submitter_email>  (1378) 
nan

>  <disregarded>  (1378) 


>  <LE>  (1378) 
-0.264475

>  <submitter_institution>  (1378) 
nan

>  <ref_mols>  (1378) 
5CB5_0_R,5CB5_0_E

>  <N_constrained_atoms>  (1378) 
17.0

>  <ref_url>  (1378) 
nan

>  <method>  (1378) 
nan

>  <comRMSD>  (1378) 
nan

>  <N_unconstrained_atoms>  (1378) 
0.0

>  <∆∆G>  (1378) 
-4.496068

>  <runtime>  (1378) 
30.342609

>  <generation_date>  (1378) 
nan

$$$$
mArh-5cms_C_2_C_γ-5CB3_0_A_γ
     RDKit          3D

  8  8  0  0  0  0  0  0  0  0999 V2000
   -0.6410   12.0800   -4.0130 O   0  0  0  0  0  0  0  0  0  0  0  0
   -1.0780   13.4330   -4.1320 C   0  0  1  0  0  0  0  0  0  0  0  0
   -0.7670   14.2480   -2.8830 C   0  0  0  0  0  0  0  0  0  0  0  0
   -0.2350   14.0980   -5.1890 C   0  0  2  0  0  0  0  0  0  0  0  0
    1.0420   13.4790   -5.2470 O   0  0  0  0  0  0  0  0  0  0  0  0
   -0.1620   15.4880   -3.3060 O   0  0  0  0  0  0  0  0  0  0  0  0
   -0.3030   15.5560   -4.7310 C   0  0  1  0  0  0  0  0  0  0  0  0
    0.7010   16.5420   -5.3100 C   0  0  0  0  0  0  0  0  0  0  0  0
  2  1  1  1
  2  3  1  0
  2  4  1  0
  4  5  1  1
  3  6  1  0
  4  7  1  0
  6  7  1  0
  7  8  1  6
M  END
>  <%Rank>  (1379) 
nan

>  <N_hits>  (1379) 
2

>  <submitter_name>  (1379) 
nan

>  <original SMILES>  (1379) 
nan

>  <∆G_unbound>  (1379) 
0.021216

>  <∆G_bound>  (1379) 
-2.725848

>  <regarded>  (1379) 
mArh-5cms_C_2_C_γ,5CB3_0_A_γ

>  <ref_pdb>  (1379) 
nan

>  <smiles>  (1379) 
CC1OCC(O)C1O

>  <submitter_email>  (1379) 
nan

>  <disregarded>  (1379) 


>  <LE>  (1379) 
-0.343383

>  <submitter_institution>  (1379) 
nan

>  <ref_mols>  (1379) 
mArh-5cms_C_2_C,5CB3_0_A

>  <N_constrained_atoms>  (1379) 
8.0

>  <ref_url>  (1379) 
nan

>  <method>  (1379) 
nan

>  <comRMSD>  (1379) 
nan

>  <N_unconstrained_atoms>  (1379) 
0.0

>  <∆∆G>  (1379) 
-2.747064

>  <runtime>  (1379) 
37.104182

>  <generation_date>  (1379) 
nan

$$$$
mArh-5cb5_B_0_B_γ-mArh-5cb5_L_0_L_γ
     RDKit          3D

  8  8  0  0  0  0  0  0  0  0999 V2000
   -0.6250   12.4730   -3.9420 O   0  0  0  0  0  0  0  0  0  0  0  0
   -0.9750   13.8450   -4.0740 C   0  0  1  0  0  0  0  0  0  0  0  0
   -0.5900   14.6650   -2.8510 C   0  0  0  0  0  0  0  0  0  0  0  0
   -0.1160   14.4730   -5.1460 C   0  0  2  0  0  0  0  0  0  0  0  0
    1.1850   13.9020   -5.1710 O   0  0  0  0  0  0  0  0  0  0  0  0
   -0.0420   15.9160   -3.3240 O   0  0  0  0  0  0  0  0  0  0  0  0
   -0.2280   15.9460   -4.7480 C   0  0  1  0  0  0  0  0  0  0  0  0
    0.7190   16.9480   -5.3890 C   0  0  0  0  0  0  0  0  0  0  0  0
  2  1  1  1
  2  3  1  0
  2  4  1  0
  4  5  1  1
  3  6  1  0
  4  7  1  0
  6  7  1  0
  7  8  1  6
M  END
>  <%Rank>  (1380) 
nan

>  <N_hits>  (1380) 
2

>  <submitter_name>  (1380) 
nan

>  <original SMILES>  (1380) 
nan

>  <∆G_unbound>  (1380) 
0.021216

>  <∆G_bound>  (1380) 
-2.68738

>  <regarded>  (1380) 
mArh-5cb5_B_0_B_γ,mArh-5cb5_L_0_L_γ

>  <ref_pdb>  (1380) 
nan

>  <smiles>  (1380) 
CC1OCC(O)C1O

>  <submitter_email>  (1380) 
nan

>  <disregarded>  (1380) 


>  <LE>  (1380) 
-0.338575

>  <submitter_institution>  (1380) 
nan

>  <ref_mols>  (1380) 
mArh-5cb5_B_0_B,mArh-5cb5_L_0_L

>  <N_constrained_atoms>  (1380) 
8.0

>  <ref_url>  (1380) 
nan

>  <method>  (1380) 
nan

>  <comRMSD>  (1380) 
nan

>  <N_unconstrained_atoms>  (1380) 
0.0

>  <∆∆G>  (1380) 
-2.708597

>  <runtime>  (1380) 
22.435693

>  <generation_date>  (1380) 
nan

$$$$
5CB5_0_M_δ-5CMS_0_G_γ
     RDKit          3D

 10 11  0  0  0  0  0  0  0  0999 V2000
   -3.8660   15.6630    1.8800 N   0  0  0  0  0  0  0  0  0  0  0  0
   -2.7850   15.4840    0.9260 C   0  0  2  0  0  0  0  0  0  0  0  0
   -3.1190   14.5250   -0.2000 C   0  0  2  0  0  0  0  0  0  0  0  0
   -1.6000   15.0280    1.6280 N   0  0  0  0  0  0  0  0  0  0  0  0
   -1.7260   14.1690   -0.7760 C   0  0  1  0  0  0  0  0  0  0  0  0
   -3.9770   14.9230   -1.3340 N   0  0  0  0  0  0  0  0  0  0  0  0
   -0.3740   15.2590    0.8690 C   0  0  0  0  0  0  0  0  0  0  0  0
   -1.8320   15.4820   -1.3750 N   0  0  0  0  0  0  0  0  0  0  0  0
   -2.9560   15.3320   -2.2580 C   0  0  0  0  0  0  0  0  0  0  0  0
   -0.3970   14.6200   -0.4410 N   0  0  0  0  0  0  0  0  0  0  0  0
  2  1  1  1
  2  3  1  0
  2  4  1  0
  3  5  1  0
  3  6  1  6
  4  7  1  0
  5  8  1  6
  6  9  1  0
  8  9  1  0
  5 10  1  0
  7 10  1  0
M  END
>  <%Rank>  (1381) 
nan

>  <N_hits>  (1381) 
2

>  <submitter_name>  (1381) 
nan

>  <original SMILES>  (1381) 
nan

>  <∆G_unbound>  (1381) 
0.213408

>  <∆G_bound>  (1381) 
-0.945555

>  <regarded>  (1381) 
5CB5_0_M_δ,5CMS_0_G_γ

>  <ref_pdb>  (1381) 
nan

>  <smiles>  (1381) 
NC1NCNC2NCNC12

>  <submitter_email>  (1381) 
nan

>  <disregarded>  (1381) 


>  <LE>  (1381) 
-0.115896

>  <submitter_institution>  (1381) 
nan

>  <ref_mols>  (1381) 
5CB5_0_M,5CMS_0_G

>  <N_constrained_atoms>  (1381) 
10.0

>  <ref_url>  (1381) 
nan

>  <method>  (1381) 
nan

>  <comRMSD>  (1381) 
nan

>  <N_unconstrained_atoms>  (1381) 
0.0

>  <∆∆G>  (1381) 
-1.158963

>  <runtime>  (1381) 
26.222422

>  <generation_date>  (1381) 
nan

$$$$
5CMS_0_M_δ-mArh-5cms_P_15_P_γ
     RDKit          3D

 17 19  0  0  0  0  0  0  0  0999 V2000
   -3.8000   15.5320    1.5690 N   0  0  0  0  0  0  0  0  0  0  0  0
   -2.7280   14.8590    0.8580 C   0  0  1  0  0  0  0  0  0  0  0  0
   -2.6190   15.2300   -0.6370 C   0  0  1  0  0  0  0  0  0  0  0  0
   -1.5180   15.2550    1.5410 N   0  0  0  0  0  0  0  0  0  0  0  0
   -1.4100   14.4590   -1.1620 C   0  0  1  0  0  0  0  0  0  0  0  0
   -3.6990   14.8750   -1.5690 N   0  0  0  0  0  0  0  0  0  0  0  0
   -0.2960   14.6780    0.9790 C   0  0  0  0  0  0  0  0  0  0  0  0
   -1.5190   14.6290   -2.7110 C   0  0  1  0  0  0  0  0  0  0  0  0
   -3.0170   14.9970   -2.8850 C   0  0  0  0  0  0  0  0  0  0  0  0
   -0.2250   14.9090   -0.4520 N   0  0  0  0  0  0  0  0  0  0  0  0
   -0.6380   15.7340   -3.1380 O   0  0  0  0  0  0  0  0  0  0  0  0
   -1.0420   13.4700   -3.6360 C   0  0  1  0  0  0  0  0  0  0  0  0
   -1.9780   12.5010   -4.0670 O   0  0  0  0  0  0  0  0  0  0  0  0
   -0.4830   15.6100   -4.5620 C   0  0  2  0  0  0  0  0  0  0  0  0
   -0.3470   14.1140   -4.8440 C   0  0  1  0  0  0  0  0  0  0  0  0
    0.6580   16.4680   -5.0860 C   0  0  0  0  0  0  0  0  0  0  0  0
    0.9850   13.6230   -4.9590 O   0  0  0  0  0  0  0  0  0  0  0  0
  2  1  1  1
  2  3  1  0
  2  4  1  0
  3  5  1  0
  3  6  1  6
  4  7  1  0
  5  8  1  0
  6  9  1  0
  8  9  1  1
  5 10  1  1
  7 10  1  0
  8 11  1  0
  8 12  1  0
 12 13  1  6
 11 14  1  0
 12 15  1  0
 14 15  1  0
 14 16  1  1
 15 17  1  1
M  END
>  <%Rank>  (1382) 
nan

>  <N_hits>  (1382) 
2

>  <submitter_name>  (1382) 
nan

>  <original SMILES>  (1382) 
nan

>  <∆G_unbound>  (1382) 
0.690665

>  <∆G_bound>  (1382) 
-3.395672

>  <regarded>  (1382) 
5CMS_0_M_δ,mArh-5cms_P_15_P_γ

>  <ref_pdb>  (1382) 
nan

>  <smiles>  (1382) 
CC1OC2(CNC3C(N)NCNC32)C(O)C1O

>  <submitter_email>  (1382) 
nan

>  <disregarded>  (1382) 


>  <LE>  (1382) 
-0.240373

>  <submitter_institution>  (1382) 
nan

>  <ref_mols>  (1382) 
5CMS_0_M,mArh-5cms_P_15_P

>  <N_constrained_atoms>  (1382) 
17.0

>  <ref_url>  (1382) 
nan

>  <method>  (1382) 
nan

>  <comRMSD>  (1382) 
nan

>  <N_unconstrained_atoms>  (1382) 
0.0

>  <∆∆G>  (1382) 
-4.086337

>  <runtime>  (1382) 
30.113919

>  <generation_date>  (1382) 
nan

$$$$
mArh-5mqx_0_A_γ-5CMS_0_H_γ
     RDKit          3D

 15 16  0  0  0  0  0  0  0  0999 V2000
    0.0950   10.6050   -1.5510 O   0  0  0  0  0  0  0  0  0  0  0  0
   -1.0100   11.1330   -2.2620 C   0  0  1  0  0  0  0  0  0  0  0  0
   -1.3170   12.5280   -1.7460 C   0  0  0  0  0  0  0  0  0  0  0  0
   -0.5380   11.3500   -3.6810 C   0  0  1  0  0  0  0  0  0  0  0  0
   -1.2610   10.6250   -4.6460 O   0  0  0  0  0  0  0  0  0  0  0  0
   -0.5020   13.4020   -2.5210 O   0  0  0  0  0  0  0  0  0  0  0  0
   -0.5360   12.8530   -3.8390 C   0  0  2  0  0  0  0  0  0  0  0  0
   -1.6770   13.5220   -4.5760 C   0  0  0  0  0  0  0  0  0  0  0  0
   -1.1820   14.9350   -4.7070 C   0  0  1  0  0  0  0  0  0  0  0  0
   -1.1240   15.6180   -3.3330 C   0  0  0  0  0  0  0  0  0  0  0  0
    0.2730   15.0130   -5.1810 C   0  0  2  0  0  0  0  0  0  0  0  0
    1.0500   13.8330   -5.0130 O   0  0  0  0  0  0  0  0  0  0  0  0
    0.2280   16.0040   -3.0850 O   0  0  0  0  0  0  0  0  0  0  0  0
    0.8010   16.1690   -4.3780 C   0  0  2  0  0  0  0  0  0  0  0  0
    0.3810   17.5020   -4.9790 C   0  0  0  0  0  0  0  0  0  0  0  0
  2  1  1  1
  2  3  1  0
  2  4  1  0
  4  5  1  6
  3  6  1  0
  4  7  1  0
  6  7  1  0
  7  8  1  1
  9  8  1  1
  9 10  1  0
  9 11  1  0
 11 12  1  1
 10 13  1  0
 11 14  1  0
 13 14  1  0
 14 15  1  6
M  END
>  <%Rank>  (1383) 
nan

>  <N_hits>  (1383) 
2

>  <submitter_name>  (1383) 
nan

>  <original SMILES>  (1383) 
nan

>  <∆G_unbound>  (1383) 
0.728257

>  <∆G_bound>  (1383) 
-2.701597

>  <regarded>  (1383) 
mArh-5mqx_0_A_γ,5CMS_0_H_γ

>  <ref_pdb>  (1383) 
nan

>  <smiles>  (1383) 
CC1OCC(CC2OCC(O)C2O)C1O

>  <submitter_email>  (1383) 
nan

>  <disregarded>  (1383) 


>  <LE>  (1383) 
-0.228657

>  <submitter_institution>  (1383) 
nan

>  <ref_mols>  (1383) 
mArh-5mqx_0_A,5CMS_0_H

>  <N_constrained_atoms>  (1383) 
15.0

>  <ref_url>  (1383) 
nan

>  <method>  (1383) 
nan

>  <comRMSD>  (1383) 
nan

>  <N_unconstrained_atoms>  (1383) 
0.0

>  <∆∆G>  (1383) 
-3.429854

>  <runtime>  (1383) 
28.480558

>  <generation_date>  (1383) 
nan

$$$$
5CMS_0_H_γ-5L9K_0_B_γ
     RDKit          3D

  8  8  0  0  0  0  0  0  0  0999 V2000
   -0.7740   12.4030   -3.9720 O   0  0  0  0  0  0  0  0  0  0  0  0
   -0.9900   13.8080   -4.0150 C   0  0  1  0  0  0  0  0  0  0  0  0
   -0.4830   14.5210   -2.7620 C   0  0  0  0  0  0  0  0  0  0  0  0
   -0.1030   14.4140   -5.0700 C   0  0  2  0  0  0  0  0  0  0  0  0
    1.1720   13.7770   -5.0870 O   0  0  0  0  0  0  0  0  0  0  0  0
    0.1670   15.7400   -3.2060 O   0  0  0  0  0  0  0  0  0  0  0  0
   -0.1560   15.8580   -4.5990 C   0  0  1  0  0  0  0  0  0  0  0  0
    0.7200   16.8880   -5.2900 C   0  0  0  0  0  0  0  0  0  0  0  0
  2  1  1  1
  2  3  1  0
  2  4  1  0
  4  5  1  1
  3  6  1  0
  4  7  1  0
  6  7  1  0
  7  8  1  6
M  END
>  <%Rank>  (1384) 
nan

>  <N_hits>  (1384) 
2

>  <submitter_name>  (1384) 
nan

>  <original SMILES>  (1384) 
nan

>  <∆G_unbound>  (1384) 
0.021216

>  <∆G_bound>  (1384) 
-2.745929

>  <regarded>  (1384) 
5CMS_0_H_γ,5L9K_0_B_γ

>  <ref_pdb>  (1384) 
nan

>  <smiles>  (1384) 
CC1OCC(O)C1O

>  <submitter_email>  (1384) 
nan

>  <disregarded>  (1384) 


>  <LE>  (1384) 
-0.345893

>  <submitter_institution>  (1384) 
nan

>  <ref_mols>  (1384) 
5CMS_0_H,5L9K_0_B

>  <N_constrained_atoms>  (1384) 
8.0

>  <ref_url>  (1384) 
nan

>  <method>  (1384) 
nan

>  <comRMSD>  (1384) 
nan

>  <N_unconstrained_atoms>  (1384) 
0.0

>  <∆∆G>  (1384) 
-2.767145

>  <runtime>  (1384) 
22.909762

>  <generation_date>  (1384) 
nan

$$$$
5LW0_1_B_γ-5CB3_0_A_γ
     RDKit          3D

  8  8  0  0  0  0  0  0  0  0999 V2000
   -0.5080   11.9770   -3.7290 O   0  0  0  0  0  0  0  0  0  0  0  0
   -0.8610   13.3390   -3.9570 C   0  0  1  0  0  0  0  0  0  0  0  0
   -0.7720   14.1810   -2.6850 C   0  0  0  0  0  0  0  0  0  0  0  0
    0.1980   13.9880   -4.8120 C   0  0  2  0  0  0  0  0  0  0  0  0
    1.4840   13.5020   -4.4340 O   0  0  0  0  0  0  0  0  0  0  0  0
   -0.2170   15.4630   -3.0680 O   0  0  0  0  0  0  0  0  0  0  0  0
   -0.1270   15.4440   -4.5000 C   0  0  1  0  0  0  0  0  0  0  0  0
    0.8080   16.5200   -5.0160 C   0  0  0  0  0  0  0  0  0  0  0  0
  2  1  1  1
  2  3  1  0
  2  4  1  0
  4  5  1  1
  3  6  1  0
  4  7  1  0
  6  7  1  0
  7  8  1  1
M  END
>  <%Rank>  (1385) 
nan

>  <N_hits>  (1385) 
2

>  <submitter_name>  (1385) 
nan

>  <original SMILES>  (1385) 
nan

>  <∆G_unbound>  (1385) 
0.021216

>  <∆G_bound>  (1385) 
-2.847187

>  <regarded>  (1385) 
5LW0_1_B_γ,5CB3_0_A_γ

>  <ref_pdb>  (1385) 
nan

>  <smiles>  (1385) 
CC1OCC(O)C1O

>  <submitter_email>  (1385) 
nan

>  <disregarded>  (1385) 


>  <LE>  (1385) 
-0.35855

>  <submitter_institution>  (1385) 
nan

>  <ref_mols>  (1385) 
5LW0_1_B,5CB3_0_A

>  <N_constrained_atoms>  (1385) 
8.0

>  <ref_url>  (1385) 
nan

>  <method>  (1385) 
nan

>  <comRMSD>  (1385) 
nan

>  <N_unconstrained_atoms>  (1385) 
0.0

>  <∆∆G>  (1385) 
-2.868403

>  <runtime>  (1385) 
22.504018

>  <generation_date>  (1385) 
nan

$$$$
5CB5_0_B_δ-mArh-5cb5_H_0_H_γ
     RDKit          3D

 17 19  0  0  0  0  0  0  0  0999 V2000
   -3.8600   15.5430    1.6640 N   0  0  0  0  0  0  0  0  0  0  0  0
   -2.7990   14.8780    0.9260 C   0  0  1  0  0  0  0  0  0  0  0  0
   -2.6380   15.3540   -0.5310 C   0  0  1  0  0  0  0  0  0  0  0  0
   -1.5890   15.1700    1.6560 N   0  0  0  0  0  0  0  0  0  0  0  0
   -1.4240   14.5990   -1.0680 C   0  0  1  0  0  0  0  0  0  0  0  0
   -3.7010   15.0810   -1.5090 N   0  0  0  0  0  0  0  0  0  0  0  0
   -0.3920   14.5600    1.0950 C   0  0  0  0  0  0  0  0  0  0  0  0
   -1.4810   14.8760   -2.5950 C   0  0  1  0  0  0  0  0  0  0  0  0
   -2.9870   15.1660   -2.8140 C   0  0  0  0  0  0  0  0  0  0  0  0
   -0.2480   14.9460   -0.2940 N   0  0  0  0  0  0  0  0  0  0  0  0
   -0.6570   16.0520   -2.9330 O   0  0  0  0  0  0  0  0  0  0  0  0
   -0.8670   13.8370   -3.5550 C   0  0  1  0  0  0  0  0  0  0  0  0
   -1.5730   12.6450   -3.8390 O   0  0  0  0  0  0  0  0  0  0  0  0
   -0.5570   16.0660   -4.3730 C   0  0  2  0  0  0  0  0  0  0  0  0
   -0.5600   14.6040   -4.8340 C   0  0  1  0  0  0  0  0  0  0  0  0
    0.6440   16.8700   -4.8450 C   0  0  0  0  0  0  0  0  0  0  0  0
    0.6600   14.1390   -5.3970 O   0  0  0  0  0  0  0  0  0  0  0  0
  2  1  1  1
  2  3  1  0
  2  4  1  0
  3  5  1  0
  3  6  1  6
  4  7  1  0
  5  8  1  0
  6  9  1  0
  8  9  1  6
  5 10  1  1
  7 10  1  0
  8 11  1  0
  8 12  1  0
 12 13  1  6
 11 14  1  0
 12 15  1  0
 14 15  1  0
 14 16  1  1
 15 17  1  1
M  END
>  <%Rank>  (1386) 
nan

>  <N_hits>  (1386) 
2

>  <submitter_name>  (1386) 
nan

>  <original SMILES>  (1386) 
nan

>  <∆G_unbound>  (1386) 
0.690665

>  <∆G_bound>  (1386) 
-3.333451

>  <regarded>  (1386) 
5CB5_0_B_δ,mArh-5cb5_H_0_H_γ

>  <ref_pdb>  (1386) 
nan

>  <smiles>  (1386) 
CC1OC2(CNC3C(N)NCNC32)C(O)C1O

>  <submitter_email>  (1386) 
nan

>  <disregarded>  (1386) 


>  <LE>  (1386) 
-0.236713

>  <submitter_institution>  (1386) 
nan

>  <ref_mols>  (1386) 
5CB5_0_B,mArh-5cb5_H_0_H

>  <N_constrained_atoms>  (1386) 
17.0

>  <ref_url>  (1386) 
nan

>  <method>  (1386) 
nan

>  <comRMSD>  (1386) 
nan

>  <N_unconstrained_atoms>  (1386) 
0.0

>  <∆∆G>  (1386) 
-4.024116

>  <runtime>  (1386) 
30.080198

>  <generation_date>  (1386) 
nan

$$$$
5CB5_0_N_δ-5CB5_0_G_δ
     RDKit          3D

 10 11  0  0  0  0  0  0  0  0999 V2000
   -3.8250   15.2450    1.9330 N   0  0  0  0  0  0  0  0  0  0  0  0
   -2.6440   15.3270    1.1020 C   0  0  2  0  0  0  0  0  0  0  0  0
   -2.9300   14.7100   -0.2620 C   0  0  2  0  0  0  0  0  0  0  0  0
   -1.5370   14.7050    1.7940 N   0  0  0  0  0  0  0  0  0  0  0  0
   -1.5800   14.3990   -0.9280 C   0  0  1  0  0  0  0  0  0  0  0  0
   -3.6890   15.4900   -1.2390 N   0  0  0  0  0  0  0  0  0  0  0  0
   -0.2970   14.5620    1.0490 C   0  0  0  0  0  0  0  0  0  0  0  0
   -1.7220   14.8120   -2.3050 N   0  0  0  0  0  0  0  0  0  0  0  0
   -3.1470   15.0300   -2.5060 C   0  0  0  0  0  0  0  0  0  0  0  0
   -0.4380   15.0110   -0.3100 N   0  0  0  0  0  0  0  0  0  0  0  0
  2  1  1  1
  2  3  1  0
  2  4  1  0
  3  5  1  0
  3  6  1  6
  4  7  1  0
  5  8  1  6
  6  9  1  0
  8  9  1  0
  5 10  1  0
  7 10  1  0
M  END
>  <%Rank>  (1387) 
nan

>  <N_hits>  (1387) 
2

>  <submitter_name>  (1387) 
nan

>  <original SMILES>  (1387) 
nan

>  <∆G_unbound>  (1387) 
0.213408

>  <∆G_bound>  (1387) 
-1.000096

>  <regarded>  (1387) 
5CB5_0_N_δ,5CB5_0_G_δ

>  <ref_pdb>  (1387) 
nan

>  <smiles>  (1387) 
NC1NCNC2NCNC12

>  <submitter_email>  (1387) 
nan

>  <disregarded>  (1387) 


>  <LE>  (1387) 
-0.12135

>  <submitter_institution>  (1387) 
nan

>  <ref_mols>  (1387) 
5CB5_0_N,5CB5_0_G

>  <N_constrained_atoms>  (1387) 
10.0

>  <ref_url>  (1387) 
nan

>  <method>  (1387) 
nan

>  <comRMSD>  (1387) 
nan

>  <N_unconstrained_atoms>  (1387) 
0.0

>  <∆∆G>  (1387) 
-1.213504

>  <runtime>  (1387) 
26.850193

>  <generation_date>  (1387) 
nan

$$$$
5DUS_0_A_α-mArh-5cb3_0_A_α
     RDKit          3D

  9  9  0  0  0  0  0  0  0  0999 V2000
   -1.9110   22.0650   -7.8870 C   0  0  0  0  0  0  0  0  0  0  0  0
   -3.4040   22.1440   -8.1560 C   0  0  1  0  0  0  0  0  0  0  0  0
   -4.0950   21.3480   -7.1870 O   0  0  0  0  0  0  0  0  0  0  0  0
   -3.9680   23.5590   -8.0320 C   0  0  1  0  0  0  0  0  0  0  0  0
   -4.2710   24.1340   -9.2880 O   0  0  0  0  0  0  0  0  0  0  0  0
   -5.3930   21.9020   -7.0450 C   0  0  2  0  0  0  0  0  0  0  0  0
   -5.2880   23.4000   -7.2900 C   0  0  1  0  0  0  0  0  0  0  0  0
   -5.8430   21.6300   -5.7200 O   0  0  0  0  0  0  0  0  0  0  0  0
   -5.4090   24.2090   -6.1350 O   0  0  0  0  0  0  0  0  0  0  0  0
  2  1  1  1
  2  3  1  0
  2  4  1  0
  4  5  1  6
  3  6  1  0
  4  7  1  0
  6  7  1  0
  6  8  1  1
  7  9  1  1
M  END
>  <%Rank>  (1388) 
nan

>  <N_hits>  (1388) 
2

>  <submitter_name>  (1388) 
nan

>  <original SMILES>  (1388) 
nan

>  <∆G_unbound>  (1388) 
0.037019

>  <∆G_bound>  (1388) 
-6.873216

>  <regarded>  (1388) 
5DUS_0_A_α,mArh-5cb3_0_A_α

>  <ref_pdb>  (1388) 
nan

>  <smiles>  (1388) 
CC1OC(O)C(O)C1O

>  <submitter_email>  (1388) 
nan

>  <disregarded>  (1388) 


>  <LE>  (1388) 
-0.767804

>  <submitter_institution>  (1388) 
nan

>  <ref_mols>  (1388) 
5DUS_0_A,mArh-5cb3_0_A

>  <N_constrained_atoms>  (1388) 
9.0

>  <ref_url>  (1388) 
nan

>  <method>  (1388) 
nan

>  <comRMSD>  (1388) 
nan

>  <N_unconstrained_atoms>  (1388) 
0.0

>  <∆∆G>  (1388) 
-6.910235

>  <runtime>  (1388) 
22.978699

>  <generation_date>  (1388) 
nan

$$$$
5CB5_0_O_δ-5DUS_0_A_γ
     RDKit          3D

 17 19  0  0  0  0  0  0  0  0999 V2000
   -3.9240   15.5310    1.5920 N   0  0  0  0  0  0  0  0  0  0  0  0
   -2.8430   14.8690    0.8810 C   0  0  1  0  0  0  0  0  0  0  0  0
   -2.6600   15.3190   -0.5810 C   0  0  1  0  0  0  0  0  0  0  0  0
   -1.6450   15.1940    1.6250 N   0  0  0  0  0  0  0  0  0  0  0  0
   -1.4510   14.5440   -1.1010 C   0  0  1  0  0  0  0  0  0  0  0  0
   -3.7050   15.0600   -1.5810 N   0  0  0  0  0  0  0  0  0  0  0  0
   -0.4360   14.5810    1.0820 C   0  0  0  0  0  0  0  0  0  0  0  0
   -1.4910   14.8200   -2.6320 C   0  0  1  0  0  0  0  0  0  0  0  0
   -2.9500   15.2910   -2.8380 C   0  0  0  0  0  0  0  0  0  0  0  0
   -0.2900   14.9300   -0.3150 N   0  0  0  0  0  0  0  0  0  0  0  0
   -0.5060   15.8730   -2.9370 O   0  0  0  0  0  0  0  0  0  0  0  0
   -1.0990   13.7090   -3.6320 C   0  0  1  0  0  0  0  0  0  0  0  0
   -2.1360   12.9050   -4.1580 O   0  0  0  0  0  0  0  0  0  0  0  0
   -0.3150   15.8540   -4.3610 C   0  0  2  0  0  0  0  0  0  0  0  0
   -0.3380   14.3870   -4.7750 C   0  0  1  0  0  0  0  0  0  0  0  0
    0.9430   16.5950   -4.7580 C   0  0  0  0  0  0  0  0  0  0  0  0
    0.9400   13.7850   -4.9620 O   0  0  0  0  0  0  0  0  0  0  0  0
  2  1  1  1
  2  3  1  0
  2  4  1  0
  3  5  1  0
  3  6  1  6
  4  7  1  0
  5  8  1  0
  6  9  1  0
  8  9  1  6
  5 10  1  1
  7 10  1  0
  8 11  1  0
  8 12  1  0
 12 13  1  6
 11 14  1  0
 12 15  1  0
 14 15  1  0
 14 16  1  1
 15 17  1  1
M  END
>  <%Rank>  (1389) 
nan

>  <N_hits>  (1389) 
2

>  <submitter_name>  (1389) 
nan

>  <original SMILES>  (1389) 
nan

>  <∆G_unbound>  (1389) 
0.690665

>  <∆G_bound>  (1389) 
-3.378272

>  <regarded>  (1389) 
5CB5_0_O_δ,5DUS_0_A_γ

>  <ref_pdb>  (1389) 
nan

>  <smiles>  (1389) 
CC1OC2(CNC3C(N)NCNC32)C(O)C1O

>  <submitter_email>  (1389) 
nan

>  <disregarded>  (1389) 


>  <LE>  (1389) 
-0.239349

>  <submitter_institution>  (1389) 
nan

>  <ref_mols>  (1389) 
5CB5_0_O,5DUS_0_A

>  <N_constrained_atoms>  (1389) 
17.0

>  <ref_url>  (1389) 
nan

>  <method>  (1389) 
nan

>  <comRMSD>  (1389) 
nan

>  <N_unconstrained_atoms>  (1389) 
0.0

>  <∆∆G>  (1389) 
-4.068937

>  <runtime>  (1389) 
29.599873

>  <generation_date>  (1389) 
nan

$$$$
mArh-5cms_O_14_O_α-mArh-2fav_B_0_B_α
     RDKit          3D

 16 17  0  0  0  0  0  0  0  0999 V2000
   -1.4130   21.9970   -8.6290 C   0  0  0  0  0  0  0  0  0  0  0  0
   -1.7780   22.6330   -9.9310 C   0  0  2  0  0  0  0  0  0  0  0  0
   -1.7630   21.7690  -11.0390 O   0  0  0  0  0  0  0  0  0  0  0  0
   -2.5630   22.2510   -7.6370 C   0  0  2  0  0  0  0  0  0  0  0  0
   -1.2990   23.9500  -10.4740 C   0  0  1  0  0  0  0  0  0  0  0  0
   -3.1670   21.1170   -6.9790 O   0  0  0  0  0  0  0  0  0  0  0  0
   -3.8610   22.9400   -8.0310 C   0  0  2  0  0  0  0  0  0  0  0  0
    0.0000   23.9280  -11.0750 O   0  0  0  0  0  0  0  0  0  0  0  0
   -3.8340   24.0800   -8.8540 O   0  0  0  0  0  0  0  0  0  0  0  0
   -2.8060   22.4800  -11.6460 C   0  0  2  0  0  0  0  0  0  0  0  0
   -2.3850   23.9900  -11.5570 C   0  0  1  0  0  0  0  0  0  0  0  0
   -4.2490   21.7390   -6.1850 C   0  0  0  0  0  0  0  0  0  0  0  0
   -4.2670   23.2120   -6.6060 C   0  0  2  0  0  0  0  0  0  0  0  0
   -3.9320   22.2500  -10.8130 O   0  0  0  0  0  0  0  0  0  0  0  0
   -3.4990   24.8090  -11.2260 O   0  0  0  0  0  0  0  0  0  0  0  0
   -5.5440   23.8620   -6.5450 O   0  0  0  0  0  0  0  0  0  0  0  0
  2  1  1  1
  2  3  1  0
  4  1  1  6
  2  5  1  0
  4  6  1  0
  4  7  1  0
  5  8  1  6
  7  9  1  6
  3 10  1  0
  5 11  1  0
 10 11  1  0
  6 12  1  0
  7 13  1  0
 12 13  1  0
 10 14  1  1
 11 15  1  1
 13 16  1  6
M  END
>  <%Rank>  (1390) 
nan

>  <N_hits>  (1390) 
2

>  <submitter_name>  (1390) 
nan

>  <original SMILES>  (1390) 
nan

>  <∆G_unbound>  (1390) 
0.906772

>  <∆G_bound>  (1390) 
-2.876171

>  <regarded>  (1390) 
mArh-5cms_O_14_O_α,mArh-2fav_B_0_B_α

>  <ref_pdb>  (1390) 
nan

>  <smiles>  (1390) 
OC1COC(CC2OC(O)C(O)C2O)C1O

>  <submitter_email>  (1390) 
nan

>  <disregarded>  (1390) 


>  <LE>  (1390) 
-0.236434

>  <submitter_institution>  (1390) 
nan

>  <ref_mols>  (1390) 
mArh-5cms_O_14_O,mArh-2fav_B_0_B

>  <N_constrained_atoms>  (1390) 
16.0

>  <ref_url>  (1390) 
nan

>  <method>  (1390) 
nan

>  <comRMSD>  (1390) 
nan

>  <N_unconstrained_atoms>  (1390) 
0.0

>  <∆∆G>  (1390) 
-3.782943

>  <runtime>  (1390) 
41.154257

>  <generation_date>  (1390) 
nan

$$$$
5CMS_0_K_α-6WOJ_0_D_α
     RDKit          3D

 17 18  0  0  0  0  0  0  0  0999 V2000
   -3.1600   21.6720   -9.1320 C   0  0  0  0  0  0  0  0  0  0  0  0
   -3.8930   22.3630  -10.2600 C   0  0  2  0  0  0  0  0  0  0  0  0
   -3.4520   22.0170  -11.5530 O   0  0  0  0  0  0  0  0  0  0  0  0
   -3.0880   22.3240   -7.8030 C   0  0  2  0  0  0  0  0  0  0  0  0
   -4.1130   23.8650  -10.3390 C   0  0  1  0  0  0  0  0  0  0  0  0
   -3.6750   21.3290   -6.9200 O   0  0  0  0  0  0  0  0  0  0  0  0
   -4.0020   23.5050   -7.7160 C   0  0  2  0  0  0  0  0  0  0  0  0
   -3.2060   24.7490  -10.9280 O   0  0  0  0  0  0  0  0  0  0  0  0
   -3.3640   24.7030   -7.8240 O   0  0  0  0  0  0  0  0  0  0  0  0
   -4.4440   22.6690  -12.3360 C   0  0  2  0  0  0  0  0  0  0  0  0
   -4.9450   23.8910  -11.5590 C   0  0  2  0  0  0  0  0  0  0  0  0
   -4.9080   21.9130   -6.5270 C   0  0  2  0  0  0  0  0  0  0  0  0
   -4.5050   23.3510   -6.3440 C   0  0  2  0  0  0  0  0  0  0  0  0
   -5.5340   21.8040  -12.5110 O   0  0  0  0  0  0  0  0  0  0  0  0
   -4.6530   25.1200  -12.2230 O   0  0  0  0  0  0  0  0  0  0  0  0
   -5.3910   21.3530   -5.3380 O   0  0  0  0  0  0  0  0  0  0  0  0
   -5.5250   24.2810   -6.0710 O   0  0  0  0  0  0  0  0  0  0  0  0
  2  1  1  1
  2  3  1  0
  4  1  1  6
  2  5  1  0
  4  6  1  0
  4  7  1  0
  5  8  1  6
  7  9  1  1
  3 10  1  0
  5 11  1  0
 10 11  1  0
  6 12  1  0
  7 13  1  0
 12 13  1  0
 10 14  1  1
 11 15  1  6
 12 16  1  1
 13 17  1  6
M  END
>  <%Rank>  (1391) 
nan

>  <N_hits>  (1391) 
2

>  <submitter_name>  (1391) 
nan

>  <original SMILES>  (1391) 
nan

>  <∆G_unbound>  (1391) 
0.708369

>  <∆G_bound>  (1391) 
-1.238807

>  <regarded>  (1391) 
5CMS_0_K_α,6WOJ_0_D_α

>  <ref_pdb>  (1391) 
nan

>  <smiles>  (1391) 
OC1OC(CC2OC(O)C(O)C2O)C(O)C1O

>  <submitter_email>  (1391) 
nan

>  <disregarded>  (1391) 


>  <LE>  (1391) 
-0.11454

>  <submitter_institution>  (1391) 
nan

>  <ref_mols>  (1391) 
5CMS_0_K,6WOJ_0_D

>  <N_constrained_atoms>  (1391) 
17.0

>  <ref_url>  (1391) 
nan

>  <method>  (1391) 
nan

>  <comRMSD>  (1391) 
nan

>  <N_unconstrained_atoms>  (1391) 
0.0

>  <∆∆G>  (1391) 
-1.947177

>  <runtime>  (1391) 
41.402841

>  <generation_date>  (1391) 
nan

$$$$
mArh-5cms_P_15_P_γ-mArh-5cms_F_6_F_γ
     RDKit          3D

  8  8  0  0  0  0  0  0  0  0999 V2000
   -0.8610   12.0980   -4.2610 O   0  0  0  0  0  0  0  0  0  0  0  0
   -1.1010   13.5030   -4.3310 C   0  0  1  0  0  0  0  0  0  0  0  0
   -0.8360   14.2180   -3.0070 C   0  0  0  0  0  0  0  0  0  0  0  0
   -0.0460   14.1270   -5.2010 C   0  0  2  0  0  0  0  0  0  0  0  0
    1.2090   13.5020   -4.9650 O   0  0  0  0  0  0  0  0  0  0  0  0
   -0.1970   15.4800   -3.3280 O   0  0  0  0  0  0  0  0  0  0  0  0
   -0.2120   15.5810   -4.7590 C   0  0  1  0  0  0  0  0  0  0  0  0
    0.7850   16.6220   -5.2440 C   0  0  0  0  0  0  0  0  0  0  0  0
  2  1  1  1
  2  3  1  0
  2  4  1  0
  4  5  1  1
  3  6  1  0
  4  7  1  0
  6  7  1  0
  7  8  1  6
M  END
>  <%Rank>  (1392) 
nan

>  <N_hits>  (1392) 
2

>  <submitter_name>  (1392) 
nan

>  <original SMILES>  (1392) 
nan

>  <∆G_unbound>  (1392) 
0.021216

>  <∆G_bound>  (1392) 
-2.802088

>  <regarded>  (1392) 
mArh-5cms_P_15_P_γ,mArh-5cms_F_6_F_γ

>  <ref_pdb>  (1392) 
nan

>  <smiles>  (1392) 
CC1OCC(O)C1O

>  <submitter_email>  (1392) 
nan

>  <disregarded>  (1392) 


>  <LE>  (1392) 
-0.352913

>  <submitter_institution>  (1392) 
nan

>  <ref_mols>  (1392) 
mArh-5cms_P_15_P,mArh-5cms_F_6_F

>  <N_constrained_atoms>  (1392) 
8.0

>  <ref_url>  (1392) 
nan

>  <method>  (1392) 
nan

>  <comRMSD>  (1392) 
nan

>  <N_unconstrained_atoms>  (1392) 
0.0

>  <∆∆G>  (1392) 
-2.823304

>  <runtime>  (1392) 
22.784706

>  <generation_date>  (1392) 
nan

$$$$
5CMS_0_A_γ-5DUS_0_A_δ
     RDKit          3D

 17 19  0  0  0  0  0  0  0  0999 V2000
   -1.3990   12.3470   -3.5440 O   0  0  0  0  0  0  0  0  0  0  0  0
   -0.5510   13.4750   -3.3610 C   0  0  2  0  0  0  0  0  0  0  0  0
   -1.1280   14.7050   -2.6020 C   0  0  2  0  0  0  0  0  0  0  0  0
   -0.0920   13.9850   -4.7320 C   0  0  2  0  0  0  0  0  0  0  0  0
    1.2570   13.6160   -4.9870 O   0  0  0  0  0  0  0  0  0  0  0  0
   -0.5480   15.8410   -3.2950 O   0  0  0  0  0  0  0  0  0  0  0  0
   -0.3900   15.4870   -4.6820 C   0  0  1  0  0  0  0  0  0  0  0  0
   -0.8340   14.9140   -1.0760 C   0  0  1  0  0  0  0  0  0  0  0  0
   -2.6900   14.7890   -2.6280 C   0  0  0  0  0  0  0  0  0  0  0  0
    0.6490   16.4200   -5.2960 C   0  0  0  0  0  0  0  0  0  0  0  0
   -2.1850   15.4390   -0.5300 C   0  0  1  0  0  0  0  0  0  0  0  0
   -3.1990   14.6780   -1.2380 N   0  0  0  0  0  0  0  0  0  0  0  0
   -0.2540   13.8160   -0.2810 N   0  0  0  0  0  0  0  0  0  0  0  0
   -0.2210   14.1080    1.1440 C   0  0  0  0  0  0  0  0  0  0  0  0
   -2.1760   15.4270    1.0140 C   0  0  1  0  0  0  0  0  0  0  0  0
   -3.4940   15.5730    1.6090 N   0  0  0  0  0  0  0  0  0  0  0  0
   -1.5630   14.2780    1.6010 N   0  0  0  0  0  0  0  0  0  0  0  0
  2  1  1  6
  2  3  1  0
  2  4  1  0
  4  5  1  1
  3  6  1  0
  4  7  1  0
  6  7  1  0
  3  8  1  0
  3  9  1  1
  7 10  1  1
  8 11  1  0
  9 12  1  0
 11 12  1  6
  8 13  1  1
 13 14  1  0
 11 15  1  0
 15 16  1  1
 14 17  1  0
 15 17  1  0
M  END
>  <%Rank>  (1393) 
nan

>  <N_hits>  (1393) 
2

>  <submitter_name>  (1393) 
nan

>  <original SMILES>  (1393) 
nan

>  <∆G_unbound>  (1393) 
0.631637

>  <∆G_bound>  (1393) 
-3.05447

>  <regarded>  (1393) 
5CMS_0_A_γ,5DUS_0_A_δ

>  <ref_pdb>  (1393) 
nan

>  <smiles>  (1393) 
CC1OC2(CNC3C(N)NCNC32)C(O)C1O

>  <submitter_email>  (1393) 
nan

>  <disregarded>  (1393) 


>  <LE>  (1393) 
-0.21683

>  <submitter_institution>  (1393) 
nan

>  <ref_mols>  (1393) 
5CMS_0_A,5DUS_0_A

>  <N_constrained_atoms>  (1393) 
17.0

>  <ref_url>  (1393) 
nan

>  <method>  (1393) 
nan

>  <comRMSD>  (1393) 
nan

>  <N_unconstrained_atoms>  (1393) 
0.0

>  <∆∆G>  (1393) 
-3.686107

>  <runtime>  (1393) 
32.062546

>  <generation_date>  (1393) 
nan

$$$$
mArh-5cms_R_17_R_γ-mArh-5cb5_O_0_O_γ
     RDKit          3D

  8  8  0  0  0  0  0  0  0  0999 V2000
    0.2580   12.2780   -3.8900 O   0  0  0  0  0  0  0  0  0  0  0  0
   -0.3120   13.5780   -4.0860 C   0  0  1  0  0  0  0  0  0  0  0  0
   -0.0060   14.5030   -2.9130 C   0  0  0  0  0  0  0  0  0  0  0  0
    0.3680   14.2870   -5.2420 C   0  0  2  0  0  0  0  0  0  0  0  0
    1.7120   13.8460   -5.3630 O   0  0  0  0  0  0  0  0  0  0  0  0
    0.3400   15.8040   -3.4430 O   0  0  0  0  0  0  0  0  0  0  0  0
    0.1060   15.7540   -4.8550 C   0  0  1  0  0  0  0  0  0  0  0  0
    0.8790   16.8710   -5.5370 C   0  0  0  0  0  0  0  0  0  0  0  0
  2  1  1  1
  2  3  1  0
  2  4  1  0
  4  5  1  1
  3  6  1  0
  4  7  1  0
  6  7  1  0
  7  8  1  6
M  END
>  <%Rank>  (1394) 
nan

>  <N_hits>  (1394) 
2

>  <submitter_name>  (1394) 
nan

>  <original SMILES>  (1394) 
nan

>  <∆G_unbound>  (1394) 
0.021216

>  <∆G_bound>  (1394) 
-2.850951

>  <regarded>  (1394) 
mArh-5cms_R_17_R_γ,mArh-5cb5_O_0_O_γ

>  <ref_pdb>  (1394) 
nan

>  <smiles>  (1394) 
CC1OCC(O)C1O

>  <submitter_email>  (1394) 
nan

>  <disregarded>  (1394) 


>  <LE>  (1394) 
-0.359021

>  <submitter_institution>  (1394) 
nan

>  <ref_mols>  (1394) 
mArh-5cms_R_17_R,mArh-5cb5_O_0_O

>  <N_constrained_atoms>  (1394) 
8.0

>  <ref_url>  (1394) 
nan

>  <method>  (1394) 
nan

>  <comRMSD>  (1394) 
nan

>  <N_unconstrained_atoms>  (1394) 
0.0

>  <∆∆G>  (1394) 
-2.872167

>  <runtime>  (1394) 
22.360679

>  <generation_date>  (1394) 
nan

$$$$
2FAV_0_B_α-5CB5_0_B_α
     RDKit          3D

  8  8  0  0  0  0  0  0  0  0999 V2000
   -1.7050   21.7620   -8.1390 C   0  0  0  0  0  0  0  0  0  0  0  0
   -2.9350   22.2230   -7.3850 C   0  0  2  0  0  0  0  0  0  0  0  0
   -3.9950   21.3110   -7.5980 O   0  0  0  0  0  0  0  0  0  0  0  0
   -3.5510   23.5630   -7.7870 C   0  0  1  0  0  0  0  0  0  0  0  0
   -3.6840   23.6490   -9.2110 O   0  0  0  0  0  0  0  0  0  0  0  0
   -5.0830   21.9450   -6.9090 C   0  0  0  0  0  0  0  0  0  0  0  0
   -4.9690   23.4310   -7.2190 C   0  0  1  0  0  0  0  0  0  0  0  0
   -5.2930   24.2850   -6.1390 O   0  0  0  0  0  0  0  0  0  0  0  0
  2  1  1  6
  2  3  1  0
  2  4  1  0
  4  5  1  6
  3  6  1  0
  4  7  1  0
  6  7  1  0
  7  8  1  1
M  END
>  <%Rank>  (1395) 
nan

>  <N_hits>  (1395) 
2

>  <submitter_name>  (1395) 
nan

>  <original SMILES>  (1395) 
nan

>  <∆G_unbound>  (1395) 
0.009467

>  <∆G_bound>  (1395) 
-5.694075

>  <regarded>  (1395) 
2FAV_0_B_α,5CB5_0_B_α

>  <ref_pdb>  (1395) 
nan

>  <smiles>  (1395) 
CC1OCC(O)C1O

>  <submitter_email>  (1395) 
nan

>  <disregarded>  (1395) 


>  <LE>  (1395) 
-0.712943

>  <submitter_institution>  (1395) 
nan

>  <ref_mols>  (1395) 
2FAV_0_B,5CB5_0_B

>  <N_constrained_atoms>  (1395) 
8.0

>  <ref_url>  (1395) 
nan

>  <method>  (1395) 
nan

>  <comRMSD>  (1395) 
nan

>  <N_unconstrained_atoms>  (1395) 
0.0

>  <∆∆G>  (1395) 
-5.703542

>  <runtime>  (1395) 
23.192277

>  <generation_date>  (1395) 
nan

$$$$
5CB5_0_H_δ-5DUS_0_A_γ
     RDKit          3D

 17 19  0  0  0  0  0  0  0  0999 V2000
   -3.9110   15.6460    1.6800 N   0  0  0  0  0  0  0  0  0  0  0  0
   -2.8530   14.9590    0.9530 C   0  0  1  0  0  0  0  0  0  0  0  0
   -2.6570   15.4070   -0.5030 C   0  0  1  0  0  0  0  0  0  0  0  0
   -1.6370   15.2370    1.6750 N   0  0  0  0  0  0  0  0  0  0  0  0
   -1.4950   14.5690   -1.0330 C   0  0  1  0  0  0  0  0  0  0  0  0
   -3.7270   15.2040   -1.4860 N   0  0  0  0  0  0  0  0  0  0  0  0
   -0.4680   14.5560    1.1440 C   0  0  0  0  0  0  0  0  0  0  0  0
   -1.5270   14.8490   -2.5650 C   0  0  1  0  0  0  0  0  0  0  0  0
   -2.9850   15.3440   -2.7620 C   0  0  0  0  0  0  0  0  0  0  0  0
   -0.3040   14.8840   -0.2580 N   0  0  0  0  0  0  0  0  0  0  0  0
   -0.5280   15.8870   -2.8730 O   0  0  0  0  0  0  0  0  0  0  0  0
   -1.1480   13.7320   -3.5670 C   0  0  1  0  0  0  0  0  0  0  0  0
   -2.1890   12.9260   -4.0830 O   0  0  0  0  0  0  0  0  0  0  0  0
   -0.3380   15.8660   -4.3020 C   0  0  2  0  0  0  0  0  0  0  0  0
   -0.3880   14.4000   -4.7200 C   0  0  1  0  0  0  0  0  0  0  0  0
    0.9370   16.5820   -4.7030 C   0  0  0  0  0  0  0  0  0  0  0  0
    0.8760   13.7750   -4.9260 O   0  0  0  0  0  0  0  0  0  0  0  0
  2  1  1  1
  2  3  1  0
  2  4  1  0
  3  5  1  0
  3  6  1  6
  4  7  1  0
  5  8  1  0
  6  9  1  0
  8  9  1  6
  5 10  1  1
  7 10  1  0
  8 11  1  0
  8 12  1  0
 12 13  1  6
 11 14  1  0
 12 15  1  0
 14 15  1  0
 14 16  1  1
 15 17  1  1
M  END
>  <%Rank>  (1396) 
nan

>  <N_hits>  (1396) 
2

>  <submitter_name>  (1396) 
nan

>  <original SMILES>  (1396) 
nan

>  <∆G_unbound>  (1396) 
0.690665

>  <∆G_bound>  (1396) 
-3.211048

>  <regarded>  (1396) 
5CB5_0_H_δ,5DUS_0_A_γ

>  <ref_pdb>  (1396) 
nan

>  <smiles>  (1396) 
CC1OC2(CNC3C(N)NCNC32)C(O)C1O

>  <submitter_email>  (1396) 
nan

>  <disregarded>  (1396) 


>  <LE>  (1396) 
-0.229513

>  <submitter_institution>  (1396) 
nan

>  <ref_mols>  (1396) 
5CB5_0_H,5DUS_0_A

>  <N_constrained_atoms>  (1396) 
17.0

>  <ref_url>  (1396) 
nan

>  <method>  (1396) 
nan

>  <comRMSD>  (1396) 
nan

>  <N_unconstrained_atoms>  (1396) 
0.0

>  <∆∆G>  (1396) 
-3.901713

>  <runtime>  (1396) 
27.8315

>  <generation_date>  (1396) 
nan

$$$$
mArh-6woj_C_0_C_γ-mArh-5cms_D_3_D_β
     RDKit          3D

  8  8  0  0  0  0  0  0  0  0999 V2000
   -0.5050   12.2590   -4.3300 O   0  0  0  0  0  0  0  0  0  0  0  0
   -0.6570   13.6750   -4.2970 C   0  0  1  0  0  0  0  0  0  0  0  0
   -0.3680   14.2690   -2.9170 C   0  0  0  0  0  0  0  0  0  0  0  0
    0.4180   14.3690   -5.1030 C   0  0  2  0  0  0  0  0  0  0  0  0
    1.6920   13.7830   -4.8660 O   0  0  0  0  0  0  0  0  0  0  0  0
    0.2550   15.5590   -3.1370 O   0  0  0  0  0  0  0  0  0  0  0  0
    0.1490   15.7630   -4.5510 C   0  0  1  0  0  0  0  0  0  0  0  0
    0.9720   16.9330   -5.0420 C   0  0  0  0  0  0  0  0  0  0  0  0
  2  1  1  1
  2  3  1  0
  2  4  1  0
  4  5  1  1
  3  6  1  0
  4  7  1  0
  6  7  1  0
  7  8  1  6
M  END
>  <%Rank>  (1397) 
nan

>  <N_hits>  (1397) 
2

>  <submitter_name>  (1397) 
nan

>  <original SMILES>  (1397) 
nan

>  <∆G_unbound>  (1397) 
0.021216

>  <∆G_bound>  (1397) 
-2.953338

>  <regarded>  (1397) 
mArh-6woj_C_0_C_γ,mArh-5cms_D_3_D_β

>  <ref_pdb>  (1397) 
nan

>  <smiles>  (1397) 
CC1OCC(O)C1O

>  <submitter_email>  (1397) 
nan

>  <disregarded>  (1397) 


>  <LE>  (1397) 
-0.371819

>  <submitter_institution>  (1397) 
nan

>  <ref_mols>  (1397) 
mArh-6woj_C_0_C,mArh-5cms_D_3_D

>  <N_constrained_atoms>  (1397) 
8.0

>  <ref_url>  (1397) 
nan

>  <method>  (1397) 
nan

>  <comRMSD>  (1397) 
nan

>  <N_unconstrained_atoms>  (1397) 
0.0

>  <∆∆G>  (1397) 
-2.974554

>  <runtime>  (1397) 
22.749786

>  <generation_date>  (1397) 
nan

$$$$
mArh-5cms_K_10_K_α-5CMS_0_A_α
     RDKit          3D

 10 10  0  0  0  0  0  0  0  0999 V2000
   -2.4970   21.2440   -8.0850 C   0  0  0  0  0  0  0  0  0  0  0  0
   -2.4320   22.0400   -9.3580 C   0  0  1  0  0  0  0  0  0  0  0  0
   -3.2780   21.4940  -10.3900 O   0  0  0  0  0  0  0  0  0  0  0  0
   -2.8310   23.4680   -9.1390 C   0  0  1  0  0  0  0  0  0  0  0  0
   -1.7030   24.3120   -9.1080 O   0  0  0  0  0  0  0  0  0  0  0  0
   -4.0820   22.5060  -11.0220 C   0  0  2  0  0  0  0  0  0  0  0  0
   -3.8940   23.7960  -10.2230 C   0  0  0  0  0  0  0  0  0  0  0  0
   -5.4630   22.2030  -11.0070 O   0  0  0  0  0  0  0  0  0  0  0  0
   -3.5960   24.8560  -11.1300 O   0  0  0  0  0  0  0  0  0  0  0  0
   -5.0700   24.1640   -9.5460 O   0  0  0  0  0  0  0  0  0  0  0  0
  2  1  1  1
  2  3  1  0
  2  4  1  0
  4  5  1  6
  3  6  1  0
  4  7  1  0
  6  7  1  0
  6  8  1  1
  7  9  1  0
  7 10  1  0
M  END
>  <%Rank>  (1398) 
nan

>  <N_hits>  (1398) 
2

>  <submitter_name>  (1398) 
nan

>  <original SMILES>  (1398) 
nan

>  <∆G_unbound>  (1398) 
0.03878

>  <∆G_bound>  (1398) 
-0.190667

>  <regarded>  (1398) 
mArh-5cms_K_10_K_α,5CMS_0_A_α

>  <ref_pdb>  (1398) 
nan

>  <smiles>  (1398) 
CC1OC(O)C(O)(O)C1O

>  <submitter_email>  (1398) 
nan

>  <disregarded>  (1398) 


>  <LE>  (1398) 
-0.022945

>  <submitter_institution>  (1398) 
nan

>  <ref_mols>  (1398) 
mArh-5cms_K_10_K,5CMS_0_A

>  <N_constrained_atoms>  (1398) 
10.0

>  <ref_url>  (1398) 
nan

>  <method>  (1398) 
nan

>  <comRMSD>  (1398) 
nan

>  <N_unconstrained_atoms>  (1398) 
0.0

>  <∆∆G>  (1398) 
-0.229447

>  <runtime>  (1398) 
27.560836

>  <generation_date>  (1398) 
nan

$$$$
5CMS_0_P_δ-mArh-2fav_B_0_B_δ
     RDKit          3D

 10 11  0  0  0  0  0  0  0  0999 V2000
   -3.6980   15.2790    1.8810 N   0  0  0  0  0  0  0  0  0  0  0  0
   -2.5090   15.3030    1.0620 C   0  0  2  0  0  0  0  0  0  0  0  0
   -2.7440   14.7120   -0.3000 C   0  0  2  0  0  0  0  0  0  0  0  0
   -1.4690   14.5960    1.7660 N   0  0  0  0  0  0  0  0  0  0  0  0
   -1.4120   14.9520   -0.9630 C   0  0  2  0  0  0  0  0  0  0  0  0
   -3.6840   15.3400   -1.2230 N   0  0  0  0  0  0  0  0  0  0  0  0
   -0.2200   14.3830    1.0520 C   0  0  0  0  0  0  0  0  0  0  0  0
   -1.7200   14.5660   -2.3100 N   0  0  0  0  0  0  0  0  0  0  0  0
   -3.0510   15.1320   -2.5280 C   0  0  0  0  0  0  0  0  0  0  0  0
   -0.3680   14.1580   -0.3790 N   0  0  0  0  0  0  0  0  0  0  0  0
  2  1  1  1
  2  3  1  0
  2  4  1  0
  3  5  1  0
  3  6  1  6
  4  7  1  0
  5  8  1  6
  6  9  1  0
  8  9  1  0
  5 10  1  0
  7 10  1  0
M  END
>  <%Rank>  (1399) 
nan

>  <N_hits>  (1399) 
2

>  <submitter_name>  (1399) 
nan

>  <original SMILES>  (1399) 
nan

>  <∆G_unbound>  (1399) 
0.213408

>  <∆G_bound>  (1399) 
-1.102394

>  <regarded>  (1399) 
5CMS_0_P_δ,mArh-2fav_B_0_B_δ

>  <ref_pdb>  (1399) 
nan

>  <smiles>  (1399) 
NC1NCNC2NCNC12

>  <submitter_email>  (1399) 
nan

>  <disregarded>  (1399) 


>  <LE>  (1399) 
-0.13158

>  <submitter_institution>  (1399) 
nan

>  <ref_mols>  (1399) 
5CMS_0_P,mArh-2fav_B_0_B

>  <N_constrained_atoms>  (1399) 
10.0

>  <ref_url>  (1399) 
nan

>  <method>  (1399) 
nan

>  <comRMSD>  (1399) 
nan

>  <N_unconstrained_atoms>  (1399) 
0.0

>  <∆∆G>  (1399) 
-1.315802

>  <runtime>  (1399) 
31.293611

>  <generation_date>  (1399) 
nan

$$$$
5LW0_0_A_δ-5CB5_0_H_γ
     RDKit          3D

 17 19  0  0  0  0  0  0  0  0999 V2000
   -4.0370   15.5010    1.6840 N   0  0  0  0  0  0  0  0  0  0  0  0
   -2.9760   14.7660    1.0140 C   0  0  1  0  0  0  0  0  0  0  0  0
   -2.7600   15.1500   -0.4600 C   0  0  1  0  0  0  0  0  0  0  0  0
   -1.7870   15.0880    1.7600 N   0  0  0  0  0  0  0  0  0  0  0  0
   -1.5240   14.3870   -0.9380 C   0  0  1  0  0  0  0  0  0  0  0  0
   -3.7850   14.7960   -1.4580 N   0  0  0  0  0  0  0  0  0  0  0  0
   -0.5930   14.3990    1.2860 C   0  0  0  0  0  0  0  0  0  0  0  0
   -1.5260   14.7010   -2.4660 C   0  0  1  0  0  0  0  0  0  0  0  0
   -3.0340   14.9310   -2.7340 C   0  0  0  0  0  0  0  0  0  0  0  0
   -0.3770   14.7300   -0.1060 N   0  0  0  0  0  0  0  0  0  0  0  0
   -0.7390   15.9150   -2.7640 O   0  0  0  0  0  0  0  0  0  0  0  0
   -0.8610   13.7160   -3.4500 C   0  0  1  0  0  0  0  0  0  0  0  0
   -1.5130   12.5040   -3.7610 O   0  0  0  0  0  0  0  0  0  0  0  0
   -0.6270   15.9820   -4.2080 C   0  0  2  0  0  0  0  0  0  0  0  0
   -0.6040   14.5340   -4.7120 C   0  0  1  0  0  0  0  0  0  0  0  0
    0.5640   16.8170   -4.6510 C   0  0  0  0  0  0  0  0  0  0  0  0
    0.6170   14.1210   -5.3160 O   0  0  0  0  0  0  0  0  0  0  0  0
  2  1  1  1
  2  3  1  0
  2  4  1  0
  3  5  1  0
  3  6  1  6
  4  7  1  0
  5  8  1  0
  6  9  1  0
  8  9  1  6
  5 10  1  1
  7 10  1  0
  8 11  1  0
  8 12  1  0
 12 13  1  6
 11 14  1  0
 12 15  1  0
 14 15  1  0
 14 16  1  1
 15 17  1  1
M  END
>  <%Rank>  (1400) 
nan

>  <N_hits>  (1400) 
2

>  <submitter_name>  (1400) 
nan

>  <original SMILES>  (1400) 
nan

>  <∆G_unbound>  (1400) 
0.690665

>  <∆G_bound>  (1400) 
-3.208454

>  <regarded>  (1400) 
5LW0_0_A_δ,5CB5_0_H_γ

>  <ref_pdb>  (1400) 
nan

>  <smiles>  (1400) 
CC1OC2(CNC3C(N)NCNC32)C(O)C1O

>  <submitter_email>  (1400) 
nan

>  <disregarded>  (1400) 


>  <LE>  (1400) 
-0.22936

>  <submitter_institution>  (1400) 
nan

>  <ref_mols>  (1400) 
5LW0_0_A,5CB5_0_H

>  <N_constrained_atoms>  (1400) 
17.0

>  <ref_url>  (1400) 
nan

>  <method>  (1400) 
nan

>  <comRMSD>  (1400) 
nan

>  <N_unconstrained_atoms>  (1400) 
0.0

>  <∆∆G>  (1400) 
-3.899118

>  <runtime>  (1400) 
29.45441

>  <generation_date>  (1400) 
nan

$$$$
mArh-5lw0_A_0_A_γ-5CB5_0_R_δ
     RDKit          3D

 17 19  0  0  0  0  0  0  0  0999 V2000
   -1.1010   12.0610   -3.4820 O   0  0  0  0  0  0  0  0  0  0  0  0
   -0.3650   13.2260   -3.1470 C   0  0  2  0  0  0  0  0  0  0  0  0
   -1.1780   14.3990   -2.5430 C   0  0  2  0  0  0  0  0  0  0  0  0
    0.3200   13.7750   -4.4090 C   0  0  2  0  0  0  0  0  0  0  0  0
    1.7350   13.6450   -4.3230 O   0  0  0  0  0  0  0  0  0  0  0  0
   -0.6730   15.5750   -3.2290 O   0  0  0  0  0  0  0  0  0  0  0  0
   -0.2200   15.1970   -4.5390 C   0  0  1  0  0  0  0  0  0  0  0  0
   -1.1080   14.7090   -1.0180 C   0  0  1  0  0  0  0  0  0  0  0  0
   -2.7270   14.2250   -2.7080 C   0  0  0  0  0  0  0  0  0  0  0  0
    0.7340   16.2710   -5.0510 C   0  0  0  0  0  0  0  0  0  0  0  0
   -2.5990   15.0000   -0.6510 C   0  0  1  0  0  0  0  0  0  0  0  0
   -3.3080   13.9580   -1.3580 N   0  0  0  0  0  0  0  0  0  0  0  0
   -0.4600   13.8170   -0.0780 N   0  0  0  0  0  0  0  0  0  0  0  0
   -0.4830   14.4120    1.2440 C   0  0  0  0  0  0  0  0  0  0  0  0
   -2.7460   15.2570    0.8890 C   0  0  1  0  0  0  0  0  0  0  0  0
   -4.0910   15.0740    1.3780 N   0  0  0  0  0  0  0  0  0  0  0  0
   -1.8480   14.4990    1.7220 N   0  0  0  0  0  0  0  0  0  0  0  0
  2  1  1  6
  2  3  1  0
  2  4  1  0
  4  5  1  1
  3  6  1  0
  4  7  1  0
  6  7  1  0
  3  8  1  0
  3  9  1  6
  7 10  1  1
  8 11  1  0
  9 12  1  0
 11 12  1  1
  8 13  1  1
 13 14  1  0
 11 15  1  0
 15 16  1  1
 14 17  1  0
 15 17  1  0
M  END
>  <%Rank>  (1401) 
nan

>  <N_hits>  (1401) 
2

>  <submitter_name>  (1401) 
nan

>  <original SMILES>  (1401) 
nan

>  <∆G_unbound>  (1401) 
0.631637

>  <∆G_bound>  (1401) 
-3.164192

>  <regarded>  (1401) 
mArh-5lw0_A_0_A_γ,5CB5_0_R_δ

>  <ref_pdb>  (1401) 
nan

>  <smiles>  (1401) 
CC1OC2(CNC3C(N)NCNC32)C(O)C1O

>  <submitter_email>  (1401) 
nan

>  <disregarded>  (1401) 


>  <LE>  (1401) 
-0.223284

>  <submitter_institution>  (1401) 
nan

>  <ref_mols>  (1401) 
mArh-5lw0_A_0_A,5CB5_0_R

>  <N_constrained_atoms>  (1401) 
17.0

>  <ref_url>  (1401) 
nan

>  <method>  (1401) 
nan

>  <comRMSD>  (1401) 
nan

>  <N_unconstrained_atoms>  (1401) 
0.0

>  <∆∆G>  (1401) 
-3.795829

>  <runtime>  (1401) 
32.384324

>  <generation_date>  (1401) 
nan

$$$$
5CB5_0_L_γ-3Q6Z_0_A_γ
     RDKit          3D

  8  8  0  0  0  0  0  0  0  0999 V2000
   -0.3420   12.3930   -3.8570 O   0  0  0  0  0  0  0  0  0  0  0  0
   -0.7930   13.7110   -4.1660 C   0  0  1  0  0  0  0  0  0  0  0  0
   -0.5980   14.6510   -2.9850 C   0  0  0  0  0  0  0  0  0  0  0  0
    0.0970   14.3330   -5.2210 C   0  0  2  0  0  0  0  0  0  0  0  0
    1.4200   13.8330   -5.1470 O   0  0  0  0  0  0  0  0  0  0  0  0
   -0.1140   15.9110   -3.5010 O   0  0  0  0  0  0  0  0  0  0  0  0
   -0.1230   15.8240   -4.9300 C   0  0  1  0  0  0  0  0  0  0  0  0
    0.8490   16.8410   -5.5030 C   0  0  0  0  0  0  0  0  0  0  0  0
  2  1  1  1
  2  3  1  0
  2  4  1  0
  4  5  1  1
  3  6  1  0
  4  7  1  0
  6  7  1  0
  7  8  1  6
M  END
>  <%Rank>  (1402) 
nan

>  <N_hits>  (1402) 
2

>  <submitter_name>  (1402) 
nan

>  <original SMILES>  (1402) 
nan

>  <∆G_unbound>  (1402) 
0.021216

>  <∆G_bound>  (1402) 
-2.797948

>  <regarded>  (1402) 
5CB5_0_L_γ,3Q6Z_0_A_γ

>  <ref_pdb>  (1402) 
nan

>  <smiles>  (1402) 
CC1OCC(O)C1O

>  <submitter_email>  (1402) 
nan

>  <disregarded>  (1402) 


>  <LE>  (1402) 
-0.352396

>  <submitter_institution>  (1402) 
nan

>  <ref_mols>  (1402) 
5CB5_0_L,3Q6Z_0_A

>  <N_constrained_atoms>  (1402) 
8.0

>  <ref_url>  (1402) 
nan

>  <method>  (1402) 
nan

>  <comRMSD>  (1402) 
nan

>  <N_unconstrained_atoms>  (1402) 
0.0

>  <∆∆G>  (1402) 
-2.819165

>  <runtime>  (1402) 
21.808297

>  <generation_date>  (1402) 
nan

$$$$
6WOJ_0_C_δ-5CMS_0_L_γ
     RDKit          3D

 17 19  0  0  0  0  0  0  0  0999 V2000
   -3.8760   15.2060    1.2880 N   0  0  0  0  0  0  0  0  0  0  0  0
   -2.7400   14.5530    0.6590 C   0  0  1  0  0  0  0  0  0  0  0  0
   -2.4370   15.0280   -0.7830 C   0  0  1  0  0  0  0  0  0  0  0  0
   -1.6320   14.8710    1.5210 N   0  0  0  0  0  0  0  0  0  0  0  0
   -1.2060   14.2550   -1.2660 C   0  0  1  0  0  0  0  0  0  0  0  0
   -3.4270   14.8000   -1.8430 N   0  0  0  0  0  0  0  0  0  0  0  0
   -0.3740   14.2880    1.0660 C   0  0  0  0  0  0  0  0  0  0  0  0
   -1.1520   14.6080   -2.8150 C   0  0  1  0  0  0  0  0  0  0  0  0
   -2.6210   15.0500   -3.0650 C   0  0  0  0  0  0  0  0  0  0  0  0
   -0.1020   14.5530   -0.3550 N   0  0  0  0  0  0  0  0  0  0  0  0
   -0.2470   15.7320   -3.1400 O   0  0  0  0  0  0  0  0  0  0  0  0
   -0.6510   13.5810   -3.8790 C   0  0  2  0  0  0  0  0  0  0  0  0
    0.4590   12.7490   -3.5970 O   0  0  0  0  0  0  0  0  0  0  0  0
   -0.3270   15.8520   -4.5840 C   0  0  2  0  0  0  0  0  0  0  0  0
   -0.3510   14.4210   -5.1300 C   0  0  1  0  0  0  0  0  0  0  0  0
    0.7590   16.7400   -5.1730 C   0  0  0  0  0  0  0  0  0  0  0  0
    0.8470   13.9990   -5.7840 O   0  0  0  0  0  0  0  0  0  0  0  0
  2  1  1  1
  2  3  1  0
  2  4  1  0
  3  5  1  0
  3  6  1  6
  4  7  1  0
  5  8  1  0
  6  9  1  0
  8  9  1  6
  5 10  1  1
  7 10  1  0
  8 11  1  0
  8 12  1  0
 12 13  1  1
 11 14  1  0
 12 15  1  0
 14 15  1  0
 14 16  1  6
 15 17  1  1
M  END
>  <%Rank>  (1403) 
nan

>  <N_hits>  (1403) 
2

>  <submitter_name>  (1403) 
nan

>  <original SMILES>  (1403) 
nan

>  <∆G_unbound>  (1403) 
0.690665

>  <∆G_bound>  (1403) 
-3.582052

>  <regarded>  (1403) 
6WOJ_0_C_δ,5CMS_0_L_γ

>  <ref_pdb>  (1403) 
nan

>  <smiles>  (1403) 
CC1OC2(CNC3C(N)NCNC32)C(O)C1O

>  <submitter_email>  (1403) 
nan

>  <disregarded>  (1403) 


>  <LE>  (1403) 
-0.251336

>  <submitter_institution>  (1403) 
nan

>  <ref_mols>  (1403) 
6WOJ_0_C,5CMS_0_L

>  <N_constrained_atoms>  (1403) 
17.0

>  <ref_url>  (1403) 
nan

>  <method>  (1403) 
nan

>  <comRMSD>  (1403) 
nan

>  <N_unconstrained_atoms>  (1403) 
0.0

>  <∆∆G>  (1403) 
-4.272717

>  <runtime>  (1403) 
27.2193

>  <generation_date>  (1403) 
nan

$$$$
mArh-5cb5_Q_0_Q_α-5CMS_0_R_α
     RDKit          3D

 17 18  0  0  0  0  0  0  0  0999 V2000
   -2.4950   22.4850   -9.1880 C   0  0  0  0  0  0  0  0  0  0  0  0
   -3.0410   22.3920   -7.8280 C   0  0  2  0  0  0  0  0  0  0  0  0
   -4.0550   21.3650   -7.7640 O   0  0  0  0  0  0  0  0  0  0  0  0
   -3.6790   22.7150  -10.1220 C   0  0  2  0  0  0  0  0  0  0  0  0
   -3.7690   23.6960   -7.5760 C   0  0  1  0  0  0  0  0  0  0  0  0
   -3.6910   21.7990  -11.1990 O   0  0  0  0  0  0  0  0  0  0  0  0
   -4.1210   24.0860  -10.7400 C   0  0  1  0  0  0  0  0  0  0  0  0
   -4.6510   24.0990   -8.6430 O   0  0  0  0  0  0  0  0  0  0  0  0
   -3.2030   25.0550  -11.1960 O   0  0  0  0  0  0  0  0  0  0  0  0
   -5.0980   21.8900   -6.9320 C   0  0  2  0  0  0  0  0  0  0  0  0
   -4.6350   23.2700   -6.4610 C   0  0  2  0  0  0  0  0  0  0  0  0
   -4.9490   22.1910  -11.6980 C   0  0  2  0  0  0  0  0  0  0  0  0
   -4.7950   23.6490  -11.9950 C   0  0  1  0  0  0  0  0  0  0  0  0
   -5.2250   21.0640   -5.7970 O   0  0  0  0  0  0  0  0  0  0  0  0
   -5.6710   24.2160   -6.2960 O   0  0  0  0  0  0  0  0  0  0  0  0
   -5.9050   22.0580  -10.6670 O   0  0  0  0  0  0  0  0  0  0  0  0
   -6.0020   24.3620  -12.1670 O   0  0  0  0  0  0  0  0  0  0  0  0
  2  1  1  6
  2  3  1  0
  4  1  1  6
  2  5  1  0
  4  6  1  0
  4  7  1  0
  5  8  1  6
  7  9  1  6
  3 10  1  0
  5 11  1  0
 10 11  1  0
  6 12  1  0
  7 13  1  0
 12 13  1  0
 10 14  1  1
 11 15  1  6
 12 16  1  1
 13 17  1  1
M  END
>  <%Rank>  (1404) 
nan

>  <N_hits>  (1404) 
2

>  <submitter_name>  (1404) 
nan

>  <original SMILES>  (1404) 
nan

>  <∆G_unbound>  (1404) 
0.708369

>  <∆G_bound>  (1404) 
-0.86906

>  <regarded>  (1404) 
mArh-5cb5_Q_0_Q_α,5CMS_0_R_α

>  <ref_pdb>  (1404) 
nan

>  <smiles>  (1404) 
OC1OC(CC2OC(O)C(O)C2O)C(O)C1O

>  <submitter_email>  (1404) 
nan

>  <disregarded>  (1404) 


>  <LE>  (1404) 
-0.09279

>  <submitter_institution>  (1404) 
nan

>  <ref_mols>  (1404) 
mArh-5cb5_Q_0_Q,5CMS_0_R

>  <N_constrained_atoms>  (1404) 
17.0

>  <ref_url>  (1404) 
nan

>  <method>  (1404) 
nan

>  <comRMSD>  (1404) 
nan

>  <N_unconstrained_atoms>  (1404) 
0.0

>  <∆∆G>  (1404) 
-1.57743

>  <runtime>  (1404) 
45.120588

>  <generation_date>  (1404) 
nan

$$$$
mArh-5cb5_A_0_A_α-2BFQ_1_A_α
     RDKit          3D

 10 10  0  0  0  0  0  0  0  0999 V2000
   -1.8970   21.7730   -8.1780 C   0  0  0  0  0  0  0  0  0  0  0  0
   -3.3500   22.0240   -8.5340 C   0  0  1  0  0  0  0  0  0  0  0  0
   -4.1520   21.2860   -7.6260 O   0  0  0  0  0  0  0  0  0  0  0  0
   -3.7930   23.4800   -8.3830 C   0  0  1  0  0  0  0  0  0  0  0  0
   -4.1640   24.0790   -9.6160 O   0  0  0  0  0  0  0  0  0  0  0  0
   -5.4030   21.9560   -7.4970 C   0  0  2  0  0  0  0  0  0  0  0  0
   -5.0800   23.4500   -7.5470 C   0  0  0  0  0  0  0  0  0  0  0  0
   -5.9410   21.6330   -6.2180 O   0  0  0  0  0  0  0  0  0  0  0  0
   -6.0630   24.1720   -8.2730 O   0  0  0  0  0  0  0  0  0  0  0  0
   -5.0220   24.0560   -6.2630 O   0  0  0  0  0  0  0  0  0  0  0  0
  2  1  1  1
  2  3  1  0
  2  4  1  0
  4  5  1  6
  3  6  1  0
  4  7  1  0
  6  7  1  0
  6  8  1  1
  7  9  1  0
  7 10  1  0
M  END
>  <%Rank>  (1405) 
nan

>  <N_hits>  (1405) 
2

>  <submitter_name>  (1405) 
nan

>  <original SMILES>  (1405) 
nan

>  <∆G_unbound>  (1405) 
0.03878

>  <∆G_bound>  (1405) 
-6.056251

>  <regarded>  (1405) 
mArh-5cb5_A_0_A_α,2BFQ_1_A_α

>  <ref_pdb>  (1405) 
nan

>  <smiles>  (1405) 
CC1OC(O)C(O)(O)C1O

>  <submitter_email>  (1405) 
nan

>  <disregarded>  (1405) 


>  <LE>  (1405) 
-0.609503

>  <submitter_institution>  (1405) 
nan

>  <ref_mols>  (1405) 
mArh-5cb5_A_0_A,2BFQ_1_A

>  <N_constrained_atoms>  (1405) 
10.0

>  <ref_url>  (1405) 
nan

>  <method>  (1405) 
nan

>  <comRMSD>  (1405) 
nan

>  <N_unconstrained_atoms>  (1405) 
0.0

>  <∆∆G>  (1405) 
-6.09503

>  <runtime>  (1405) 
26.57853

>  <generation_date>  (1405) 
nan

$$$$
mArh-5cms_G_3_G_β-mArh-5cms_E_5_E_γ
     RDKit          3D

  8  8  0  0  0  0  0  0  0  0999 V2000
   -0.9230   12.4430   -4.0580 O   0  0  0  0  0  0  0  0  0  0  0  0
   -1.1130   13.8500   -4.0780 C   0  0  1  0  0  0  0  0  0  0  0  0
   -0.6610   14.5240   -2.7860 C   0  0  0  0  0  0  0  0  0  0  0  0
   -0.1460   14.4390   -5.0640 C   0  0  2  0  0  0  0  0  0  0  0  0
    1.0910   13.7450   -5.0300 O   0  0  0  0  0  0  0  0  0  0  0  0
    0.0400   15.7340   -3.1630 O   0  0  0  0  0  0  0  0  0  0  0  0
   -0.1610   15.8820   -4.5750 C   0  0  1  0  0  0  0  0  0  0  0  0
    0.8240   16.8640   -5.1800 C   0  0  0  0  0  0  0  0  0  0  0  0
  2  1  1  1
  2  3  1  0
  2  4  1  0
  4  5  1  1
  3  6  1  0
  4  7  1  0
  6  7  1  0
  7  8  1  6
M  END
>  <%Rank>  (1406) 
nan

>  <N_hits>  (1406) 
2

>  <submitter_name>  (1406) 
nan

>  <original SMILES>  (1406) 
nan

>  <∆G_unbound>  (1406) 
0.021216

>  <∆G_bound>  (1406) 
-2.62114

>  <regarded>  (1406) 
mArh-5cms_G_3_G_β,mArh-5cms_E_5_E_γ

>  <ref_pdb>  (1406) 
nan

>  <smiles>  (1406) 
CC1OCC(O)C1O

>  <submitter_email>  (1406) 
nan

>  <disregarded>  (1406) 


>  <LE>  (1406) 
-0.330295

>  <submitter_institution>  (1406) 
nan

>  <ref_mols>  (1406) 
mArh-5cms_G_3_G,mArh-5cms_E_5_E

>  <N_constrained_atoms>  (1406) 
8.0

>  <ref_url>  (1406) 
nan

>  <method>  (1406) 
nan

>  <comRMSD>  (1406) 
nan

>  <N_unconstrained_atoms>  (1406) 
0.0

>  <∆∆G>  (1406) 
-2.642357

>  <runtime>  (1406) 
33.359894

>  <generation_date>  (1406) 
nan

$$$$
mArh-3vfq_B_0_A_γ-mArh-5cms_C_2_C_γ
     RDKit          3D

 15 16  0  0  0  0  0  0  0  0999 V2000
   -4.0260   11.4910   -2.2190 O   0  0  0  0  0  0  0  0  0  0  0  0
   -4.3250   12.8720   -2.4310 C   0  0  1  0  0  0  0  0  0  0  0  0
   -3.6280   13.7810   -1.4220 C   0  0  0  0  0  0  0  0  0  0  0  0
   -3.7600   13.3660   -3.7650 C   0  0  2  0  0  0  0  0  0  0  0  0
   -2.4160   12.8780   -4.1180 O   0  0  0  0  0  0  0  0  0  0  0  0
   -3.3940   15.0320   -2.1060 O   0  0  0  0  0  0  0  0  0  0  0  0
   -3.8130   14.8630   -3.4840 C   0  0  1  0  0  0  0  0  0  0  0  0
   -2.9990   15.7080   -4.4590 C   0  0  0  0  0  0  0  0  0  0  0  0
   -1.1690   13.3790   -3.5100 C   0  0  2  0  0  0  0  0  0  0  0  0
   -1.2400   14.7180   -2.8010 C   0  0  0  0  0  0  0  0  0  0  0  0
   -0.0940   13.6580   -4.5960 C   0  0  1  0  0  0  0  0  0  0  0  0
   -0.5240   13.4220   -5.9160 O   0  0  0  0  0  0  0  0  0  0  0  0
    0.0230   15.3740   -2.9740 O   0  0  0  0  0  0  0  0  0  0  0  0
    0.4720   15.0670   -4.2980 C   0  0  2  0  0  0  0  0  0  0  0  0
    0.0950   16.2440   -5.1930 C   0  0  0  0  0  0  0  0  0  0  0  0
  2  1  1  1
  2  3  1  0
  2  4  1  0
  4  5  1  1
  3  6  1  0
  4  7  1  0
  6  7  1  0
  7  8  1  6
  9  5  1  6
  9 10  1  0
  9 11  1  0
 11 12  1  6
 10 13  1  0
 11 14  1  0
 13 14  1  0
 14 15  1  6
M  END
>  <%Rank>  (1407) 
nan

>  <N_hits>  (1407) 
2

>  <submitter_name>  (1407) 
nan

>  <original SMILES>  (1407) 
nan

>  <∆G_unbound>  (1407) 
0.129431

>  <∆G_bound>  (1407) 
-2.079331

>  <regarded>  (1407) 
mArh-3vfq_B_0_A_γ,mArh-5cms_C_2_C_γ

>  <ref_pdb>  (1407) 
nan

>  <smiles>  (1407) 
CC1OCC(OC2C(O)COC2C)C1O

>  <submitter_email>  (1407) 
nan

>  <disregarded>  (1407) 


>  <LE>  (1407) 
-0.147251

>  <submitter_institution>  (1407) 
nan

>  <ref_mols>  (1407) 
mArh-3vfq_B_0_A,mArh-5cms_C_2_C

>  <N_constrained_atoms>  (1407) 
15.0

>  <ref_url>  (1407) 
nan

>  <method>  (1407) 
nan

>  <comRMSD>  (1407) 
nan

>  <N_unconstrained_atoms>  (1407) 
0.0

>  <∆∆G>  (1407) 
-2.208762

>  <runtime>  (1407) 
29.016773

>  <generation_date>  (1407) 
nan

$$$$
5CB5_0_J_δ-5MQX_0_A_δ
     RDKit          3D

 10 11  0  0  0  0  0  0  0  0999 V2000
   -4.0810   15.1960    1.8060 N   0  0  0  0  0  0  0  0  0  0  0  0
   -2.9060   15.4550    0.9990 C   0  0  2  0  0  0  0  0  0  0  0  0
   -3.0010   14.8370   -0.3870 C   0  0  2  0  0  0  0  0  0  0  0  0
   -1.7450   14.9310    1.6870 N   0  0  0  0  0  0  0  0  0  0  0  0
   -1.7030   15.2540   -1.0420 C   0  0  2  0  0  0  0  0  0  0  0  0
   -3.9810   15.3090   -1.3610 N   0  0  0  0  0  0  0  0  0  0  0  0
   -0.4960   15.1770    0.9730 C   0  0  0  0  0  0  0  0  0  0  0  0
   -1.9020   14.7400   -2.3660 N   0  0  0  0  0  0  0  0  0  0  0  0
   -3.3020   15.0630   -2.6400 C   0  0  0  0  0  0  0  0  0  0  0  0
   -0.5520   14.7040   -0.3910 N   0  0  0  0  0  0  0  0  0  0  0  0
  2  1  1  1
  2  3  1  0
  2  4  1  0
  3  5  1  0
  3  6  1  6
  4  7  1  0
  5  8  1  6
  6  9  1  0
  8  9  1  0
  5 10  1  0
  7 10  1  0
M  END
>  <%Rank>  (1408) 
nan

>  <N_hits>  (1408) 
2

>  <submitter_name>  (1408) 
nan

>  <original SMILES>  (1408) 
nan

>  <∆G_unbound>  (1408) 
0.213408

>  <∆G_bound>  (1408) 
-1.423039

>  <regarded>  (1408) 
5CB5_0_J_δ,5MQX_0_A_δ

>  <ref_pdb>  (1408) 
nan

>  <smiles>  (1408) 
NC1NCNC2NCNC12

>  <submitter_email>  (1408) 
nan

>  <disregarded>  (1408) 


>  <LE>  (1408) 
-0.163645

>  <submitter_institution>  (1408) 
nan

>  <ref_mols>  (1408) 
5CB5_0_J,5MQX_0_A

>  <N_constrained_atoms>  (1408) 
10.0

>  <ref_url>  (1408) 
nan

>  <method>  (1408) 
nan

>  <comRMSD>  (1408) 
nan

>  <N_unconstrained_atoms>  (1408) 
0.0

>  <∆∆G>  (1408) 
-1.636447

>  <runtime>  (1408) 
26.106777

>  <generation_date>  (1408) 
nan

$$$$
mArh-5dus_0_A_γ-5CMS_0_L_δ
     RDKit          3D

 17 19  0  0  0  0  0  0  0  0999 V2000
   -1.6470   12.7950   -3.8010 O   0  0  0  0  0  0  0  0  0  0  0  0
   -0.6080   13.7260   -3.5150 C   0  0  2  0  0  0  0  0  0  0  0  0
   -1.0210   14.9540   -2.6870 C   0  0  2  0  0  0  0  0  0  0  0  0
   -0.0690   14.2920   -4.8360 C   0  0  2  0  0  0  0  0  0  0  0  0
    1.2350   13.8040   -5.1020 O   0  0  0  0  0  0  0  0  0  0  0  0
   -0.2800   16.0500   -3.2590 O   0  0  0  0  0  0  0  0  0  0  0  0
   -0.2100   15.8120   -4.6690 C   0  0  1  0  0  0  0  0  0  0  0  0
   -0.8030   15.0710   -1.1430 C   0  0  1  0  0  0  0  0  0  0  0  0
   -2.5510   15.1620   -2.8150 C   0  0  0  0  0  0  0  0  0  0  0  0
    0.8830   16.6910   -5.2370 C   0  0  0  0  0  0  0  0  0  0  0  0
   -2.2120   15.4830   -0.6630 C   0  0  1  0  0  0  0  0  0  0  0  0
   -3.1340   14.7560   -1.5220 N   0  0  0  0  0  0  0  0  0  0  0  0
   -0.1750   13.9980   -0.3630 N   0  0  0  0  0  0  0  0  0  0  0  0
   -0.2200   14.2550    1.0700 C   0  0  0  0  0  0  0  0  0  0  0  0
   -2.3260   15.4000    0.8760 C   0  0  1  0  0  0  0  0  0  0  0  0
   -3.7010   15.3090    1.3370 N   0  0  0  0  0  0  0  0  0  0  0  0
   -1.5840   14.3530    1.5180 N   0  0  0  0  0  0  0  0  0  0  0  0
  2  1  1  6
  2  3  1  0
  2  4  1  0
  4  5  1  1
  3  6  1  0
  4  7  1  0
  6  7  1  0
  3  8  1  0
  3  9  1  1
  7 10  1  1
  8 11  1  0
  9 12  1  0
 11 12  1  6
  8 13  1  1
 13 14  1  0
 11 15  1  0
 15 16  1  6
 14 17  1  0
 15 17  1  0
M  END
>  <%Rank>  (1409) 
nan

>  <N_hits>  (1409) 
2

>  <submitter_name>  (1409) 
nan

>  <original SMILES>  (1409) 
nan

>  <∆G_unbound>  (1409) 
0.631637

>  <∆G_bound>  (1409) 
-3.820778

>  <regarded>  (1409) 
mArh-5dus_0_A_γ,5CMS_0_L_δ

>  <ref_pdb>  (1409) 
nan

>  <smiles>  (1409) 
CC1OC2(CNC3C(N)NCNC32)C(O)C1O

>  <submitter_email>  (1409) 
nan

>  <disregarded>  (1409) 


>  <LE>  (1409) 
-0.261907

>  <submitter_institution>  (1409) 
nan

>  <ref_mols>  (1409) 
mArh-5dus_0_A,5CMS_0_L

>  <N_constrained_atoms>  (1409) 
17.0

>  <ref_url>  (1409) 
nan

>  <method>  (1409) 
nan

>  <comRMSD>  (1409) 
nan

>  <N_unconstrained_atoms>  (1409) 
0.0

>  <∆∆G>  (1409) 
-4.452415

>  <runtime>  (1409) 
29.926711

>  <generation_date>  (1409) 
nan

$$$$
mArh-5cb5_E_0_E_γ-5CMS_0_C_γ
     RDKit          3D

  8  8  0  0  0  0  0  0  0  0999 V2000
   -0.7430   12.3820   -4.0770 O   0  0  0  0  0  0  0  0  0  0  0  0
   -1.0810   13.7540   -4.2560 C   0  0  1  0  0  0  0  0  0  0  0  0
   -0.9380   14.5550   -2.9660 C   0  0  0  0  0  0  0  0  0  0  0  0
   -0.0400   14.4030   -5.1290 C   0  0  2  0  0  0  0  0  0  0  0  0
    1.2370   13.8390   -4.8940 O   0  0  0  0  0  0  0  0  0  0  0  0
   -0.2780   15.7970   -3.3030 O   0  0  0  0  0  0  0  0  0  0  0  0
   -0.2480   15.8650   -4.7330 C   0  0  1  0  0  0  0  0  0  0  0  0
    0.7490   16.9110   -5.2080 C   0  0  0  0  0  0  0  0  0  0  0  0
  2  1  1  1
  2  3  1  0
  2  4  1  0
  4  5  1  1
  3  6  1  0
  4  7  1  0
  6  7  1  0
  7  8  1  1
M  END
>  <%Rank>  (1410) 
nan

>  <N_hits>  (1410) 
2

>  <submitter_name>  (1410) 
nan

>  <original SMILES>  (1410) 
nan

>  <∆G_unbound>  (1410) 
0.021216

>  <∆G_bound>  (1410) 
-2.745233

>  <regarded>  (1410) 
mArh-5cb5_E_0_E_γ,5CMS_0_C_γ

>  <ref_pdb>  (1410) 
nan

>  <smiles>  (1410) 
CC1OCC(O)C1O

>  <submitter_email>  (1410) 
nan

>  <disregarded>  (1410) 


>  <LE>  (1410) 
-0.345806

>  <submitter_institution>  (1410) 
nan

>  <ref_mols>  (1410) 
mArh-5cb5_E_0_E,5CMS_0_C

>  <N_constrained_atoms>  (1410) 
8.0

>  <ref_url>  (1410) 
nan

>  <method>  (1410) 
nan

>  <comRMSD>  (1410) 
nan

>  <N_unconstrained_atoms>  (1410) 
0.0

>  <∆∆G>  (1410) 
-2.766449

>  <runtime>  (1410) 
21.759117

>  <generation_date>  (1410) 
nan

$$$$
mArh-6fx_7_0A_γ-mArh-6woj_C_0_C_γ
     RDKit          3D

  8  8  0  0  0  0  0  0  0  0999 V2000
   -1.0260   12.5290   -4.1900 O   0  0  0  0  0  0  0  0  0  0  0  0
   -1.2050   13.9340   -4.3050 C   0  0  1  0  0  0  0  0  0  0  0  0
   -0.9210   14.6860   -3.0100 C   0  0  0  0  0  0  0  0  0  0  0  0
   -0.1240   14.4830   -5.1900 C   0  0  2  0  0  0  0  0  0  0  0  0
    1.1210   13.8510   -4.9450 O   0  0  0  0  0  0  0  0  0  0  0  0
   -0.2410   15.9120   -3.3850 O   0  0  0  0  0  0  0  0  0  0  0  0
   -0.2540   15.9580   -4.8200 C   0  0  1  0  0  0  0  0  0  0  0  0
    0.7780   16.9440   -5.3430 C   0  0  0  0  0  0  0  0  0  0  0  0
  2  1  1  1
  2  3  1  0
  2  4  1  0
  4  5  1  1
  3  6  1  0
  4  7  1  0
  6  7  1  0
  7  8  1  6
M  END
>  <%Rank>  (1411) 
nan

>  <N_hits>  (1411) 
2

>  <submitter_name>  (1411) 
nan

>  <original SMILES>  (1411) 
nan

>  <∆G_unbound>  (1411) 
0.021216

>  <∆G_bound>  (1411) 
-2.430373

>  <regarded>  (1411) 
mArh-6fx_7_0A_γ,mArh-6woj_C_0_C_γ

>  <ref_pdb>  (1411) 
nan

>  <smiles>  (1411) 
CC1OCC(O)C1O

>  <submitter_email>  (1411) 
nan

>  <disregarded>  (1411) 


>  <LE>  (1411) 
-0.306449

>  <submitter_institution>  (1411) 
nan

>  <ref_mols>  (1411) 
mArh-6fx_7_0A,mArh-6woj_C_0_C

>  <N_constrained_atoms>  (1411) 
8.0

>  <ref_url>  (1411) 
nan

>  <method>  (1411) 
nan

>  <comRMSD>  (1411) 
nan

>  <N_unconstrained_atoms>  (1411) 
0.0

>  <∆∆G>  (1411) 
-2.451589

>  <runtime>  (1411) 
22.553348

>  <generation_date>  (1411) 
nan

$$$$
5CB5_0_E_δ-5LW0_0_A_γ
     RDKit          3D

 17 19  0  0  0  0  0  0  0  0999 V2000
   -3.7640   15.5750    1.6270 N   0  0  0  0  0  0  0  0  0  0  0  0
   -2.8030   14.8160    0.8520 C   0  0  1  0  0  0  0  0  0  0  0  0
   -2.6110   15.2780   -0.6050 C   0  0  1  0  0  0  0  0  0  0  0  0
   -1.5490   14.8310    1.5910 N   0  0  0  0  0  0  0  0  0  0  0  0
   -1.4480   14.4180   -1.0930 C   0  0  1  0  0  0  0  0  0  0  0  0
   -3.6910   15.0130   -1.5780 N   0  0  0  0  0  0  0  0  0  0  0  0
   -0.3920   15.3710    0.8600 C   0  0  0  0  0  0  0  0  0  0  0  0
   -1.4810   14.5440   -2.6270 C   0  0  1  0  0  0  0  0  0  0  0  0
   -2.9860   14.8370   -2.8850 C   0  0  0  0  0  0  0  0  0  0  0  0
   -0.2200   14.7670   -0.4310 N   0  0  0  0  0  0  0  0  0  0  0  0
   -0.6370   15.6790   -3.0360 O   0  0  0  0  0  0  0  0  0  0  0  0
   -0.8160   13.3620   -3.3960 C   0  0  1  0  0  0  0  0  0  0  0  0
   -1.5970   12.2530   -3.7900 O   0  0  0  0  0  0  0  0  0  0  0  0
   -0.3230   15.4610   -4.4260 C   0  0  2  0  0  0  0  0  0  0  0  0
   -0.0430   13.9670   -4.5710 C   0  0  1  0  0  0  0  0  0  0  0  0
    0.8060   16.3600   -4.8970 C   0  0  0  0  0  0  0  0  0  0  0  0
    1.3360   13.5970   -4.5130 O   0  0  0  0  0  0  0  0  0  0  0  0
  2  1  1  1
  2  3  1  0
  2  4  1  0
  3  5  1  0
  3  6  1  6
  4  7  1  0
  5  8  1  0
  6  9  1  0
  8  9  1  6
  5 10  1  1
  7 10  1  0
  8 11  1  0
  8 12  1  0
 12 13  1  6
 11 14  1  0
 12 15  1  0
 14 15  1  0
 14 16  1  1
 15 17  1  1
M  END
>  <%Rank>  (1412) 
nan

>  <N_hits>  (1412) 
2

>  <submitter_name>  (1412) 
nan

>  <original SMILES>  (1412) 
nan

>  <∆G_unbound>  (1412) 
0.690665

>  <∆G_bound>  (1412) 
-3.065063

>  <regarded>  (1412) 
5CB5_0_E_δ,5LW0_0_A_γ

>  <ref_pdb>  (1412) 
nan

>  <smiles>  (1412) 
CC1OC2(CNC3C(N)NCNC32)C(O)C1O

>  <submitter_email>  (1412) 
nan

>  <disregarded>  (1412) 


>  <LE>  (1412) 
-0.220925

>  <submitter_institution>  (1412) 
nan

>  <ref_mols>  (1412) 
5CB5_0_E,5LW0_0_A

>  <N_constrained_atoms>  (1412) 
17.0

>  <ref_url>  (1412) 
nan

>  <method>  (1412) 
nan

>  <comRMSD>  (1412) 
nan

>  <N_unconstrained_atoms>  (1412) 
0.0

>  <∆∆G>  (1412) 
-3.755728

>  <runtime>  (1412) 
29.972811

>  <generation_date>  (1412) 
nan

$$$$
5CMS_0_R_γ-6MEA_0_B_δ
     RDKit          3D

 17 19  0  0  0  0  0  0  0  0999 V2000
   -0.6960   12.2880   -3.6540 O   0  0  0  0  0  0  0  0  0  0  0  0
   -0.0530   13.5340   -3.4530 C   0  0  2  0  0  0  0  0  0  0  0  0
   -0.7920   14.6240   -2.6190 C   0  0  2  0  0  0  0  0  0  0  0  0
    0.2470   14.1870   -4.8180 C   0  0  2  0  0  0  0  0  0  0  0  0
    1.5820   13.9310   -5.2300 O   0  0  0  0  0  0  0  0  0  0  0  0
   -0.1330   15.8180   -3.1470 O   0  0  0  0  0  0  0  0  0  0  0  0
   -0.1070   15.6600   -4.5850 C   0  0  1  0  0  0  0  0  0  0  0  0
   -0.7600   14.6300   -1.0350 C   0  0  1  0  0  0  0  0  0  0  0  0
   -2.3390   14.7190   -2.8640 C   0  0  0  0  0  0  0  0  0  0  0  0
    0.7980   16.7120   -5.2220 C   0  0  0  0  0  0  0  0  0  0  0  0
   -2.2290   14.4910   -0.5800 C   0  0  2  0  0  0  0  0  0  0  0  0
   -3.0460   15.1200   -1.6130 N   0  0  0  0  0  0  0  0  0  0  0  0
    0.0190   13.7020   -0.2220 N   0  0  0  0  0  0  0  0  0  0  0  0
   -0.1060   14.0090    1.2170 C   0  0  0  0  0  0  0  0  0  0  0  0
   -2.2540   14.9980    0.8820 C   0  0  1  0  0  0  0  0  0  0  0  0
   -3.5740   15.1150    1.4700 N   0  0  0  0  0  0  0  0  0  0  0  0
   -1.4700   14.1230    1.6770 N   0  0  0  0  0  0  0  0  0  0  0  0
  2  1  1  6
  2  3  1  0
  2  4  1  0
  4  5  1  1
  3  6  1  0
  4  7  1  0
  6  7  1  0
  3  8  1  0
  3  9  1  1
  7 10  1  6
  8 11  1  0
  9 12  1  0
 11 12  1  6
  8 13  1  1
 13 14  1  0
 11 15  1  0
 15 16  1  1
 14 17  1  0
 15 17  1  0
M  END
>  <%Rank>  (1413) 
nan

>  <N_hits>  (1413) 
2

>  <submitter_name>  (1413) 
nan

>  <original SMILES>  (1413) 
nan

>  <∆G_unbound>  (1413) 
0.631637

>  <∆G_bound>  (1413) 
-2.953886

>  <regarded>  (1413) 
5CMS_0_R_γ,6MEA_0_B_δ

>  <ref_pdb>  (1413) 
nan

>  <smiles>  (1413) 
CC1OC2(CNC3C(N)NCNC32)C(O)C1O

>  <submitter_email>  (1413) 
nan

>  <disregarded>  (1413) 


>  <LE>  (1413) 
-0.210913

>  <submitter_institution>  (1413) 
nan

>  <ref_mols>  (1413) 
5CMS_0_R,6MEA_0_B

>  <N_constrained_atoms>  (1413) 
17.0

>  <ref_url>  (1413) 
nan

>  <method>  (1413) 
nan

>  <comRMSD>  (1413) 
nan

>  <N_unconstrained_atoms>  (1413) 
0.0

>  <∆∆G>  (1413) 
-3.585523

>  <runtime>  (1413) 
27.912754

>  <generation_date>  (1413) 
nan

$$$$
mArh-5l9k_B_0_B_α-mArh-6mea_A_0_A_α
     RDKit          3D

 10 10  0  0  0  0  0  0  0  0999 V2000
   -2.4340   22.2550   -8.1080 C   0  0  0  0  0  0  0  0  0  0  0  0
   -3.8360   21.8440   -8.5710 C   0  0  1  0  0  0  0  0  0  0  0  0
   -4.6230   21.0120   -7.5840 N   0  0  0  0  0  0  0  0  0  0  0  0
   -4.8250   23.0100   -8.7740 C   0  0  2  0  0  0  0  0  0  0  0  0
   -4.3750   24.1710   -9.4270 O   0  0  0  0  0  0  0  0  0  0  0  0
   -3.8980   20.7960   -6.3470 O   0  0  0  0  0  0  0  0  0  0  0  0
   -5.7640   21.7940   -7.1770 C   0  0  1  0  0  0  0  0  0  0  0  0
   -5.2090   23.2060   -7.3280 C   0  0  2  0  0  0  0  0  0  0  0  0
   -6.8710   21.4820   -8.0270 O   0  0  0  0  0  0  0  0  0  0  0  0
   -6.1470   24.2340   -7.0720 O   0  0  0  0  0  0  0  0  0  0  0  0
  2  1  1  1
  2  3  1  0
  2  4  1  0
  4  5  1  1
  3  6  1  0
  3  7  1  0
  4  8  1  0
  7  8  1  0
  7  9  1  6
  8 10  1  6
M  END
>  <%Rank>  (1414) 
nan

>  <N_hits>  (1414) 
2

>  <submitter_name>  (1414) 
nan

>  <original SMILES>  (1414) 
nan

>  <∆G_unbound>  (1414) 
0.073315

>  <∆G_bound>  (1414) 
-4.452026

>  <regarded>  (1414) 
mArh-5l9k_B_0_B_α,mArh-6mea_A_0_A_α

>  <ref_pdb>  (1414) 
nan

>  <smiles>  (1414) 
CC1C(O)C(O)C(O)N1O

>  <submitter_email>  (1414) 
nan

>  <disregarded>  (1414) 


>  <LE>  (1414) 
-0.452534

>  <submitter_institution>  (1414) 
nan

>  <ref_mols>  (1414) 
mArh-5l9k_B_0_B,mArh-6mea_A_0_A

>  <N_constrained_atoms>  (1414) 
10.0

>  <ref_url>  (1414) 
nan

>  <method>  (1414) 
nan

>  <comRMSD>  (1414) 
nan

>  <N_unconstrained_atoms>  (1414) 
0.0

>  <∆∆G>  (1414) 
-4.52534

>  <runtime>  (1414) 
25.370932

>  <generation_date>  (1414) 
nan

$$$$
5LW0_1_B_γ-mArh-5cb5_L_0_L_γ
     RDKit          3D

  8  8  0  0  0  0  0  0  0  0999 V2000
   -0.4700   11.9740   -3.7110 O   0  0  0  0  0  0  0  0  0  0  0  0
   -0.8370   13.3340   -3.9440 C   0  0  1  0  0  0  0  0  0  0  0  0
   -0.7650   14.1890   -2.6760 C   0  0  0  0  0  0  0  0  0  0  0  0
    0.2100   13.9890   -4.8100 C   0  0  2  0  0  0  0  0  0  0  0  0
    1.5050   13.5080   -4.4590 O   0  0  0  0  0  0  0  0  0  0  0  0
   -0.2090   15.4680   -3.0590 O   0  0  0  0  0  0  0  0  0  0  0  0
   -0.1170   15.4430   -4.4930 C   0  0  1  0  0  0  0  0  0  0  0  0
    0.8180   16.5230   -5.0060 C   0  0  0  0  0  0  0  0  0  0  0  0
  2  1  1  1
  2  3  1  0
  2  4  1  0
  4  5  1  1
  3  6  1  0
  4  7  1  0
  6  7  1  0
  7  8  1  1
M  END
>  <%Rank>  (1415) 
nan

>  <N_hits>  (1415) 
2

>  <submitter_name>  (1415) 
nan

>  <original SMILES>  (1415) 
nan

>  <∆G_unbound>  (1415) 
0.021216

>  <∆G_bound>  (1415) 
-2.872601

>  <regarded>  (1415) 
5LW0_1_B_γ,mArh-5cb5_L_0_L_γ

>  <ref_pdb>  (1415) 
nan

>  <smiles>  (1415) 
CC1OCC(O)C1O

>  <submitter_email>  (1415) 
nan

>  <disregarded>  (1415) 


>  <LE>  (1415) 
-0.361727

>  <submitter_institution>  (1415) 
nan

>  <ref_mols>  (1415) 
5LW0_1_B,mArh-5cb5_L_0_L

>  <N_constrained_atoms>  (1415) 
8.0

>  <ref_url>  (1415) 
nan

>  <method>  (1415) 
nan

>  <comRMSD>  (1415) 
nan

>  <N_unconstrained_atoms>  (1415) 
0.0

>  <∆∆G>  (1415) 
-2.893818

>  <runtime>  (1415) 
21.86833

>  <generation_date>  (1415) 
nan

$$$$
6MEA_0_B_γ-5CB5_0_G_γ
     RDKit          3D

  8  8  0  0  0  0  0  0  0  0999 V2000
   -0.9730   12.3930   -4.2670 O   0  0  0  0  0  0  0  0  0  0  0  0
   -1.0650   13.8090   -4.1950 C   0  0  1  0  0  0  0  0  0  0  0  0
   -0.6410   14.3700   -2.8390 C   0  0  0  0  0  0  0  0  0  0  0  0
   -0.0170   14.4140   -5.0810 C   0  0  2  0  0  0  0  0  0  0  0  0
    1.2090   13.6960   -4.9810 O   0  0  0  0  0  0  0  0  0  0  0  0
    0.0630   15.6100   -3.1090 O   0  0  0  0  0  0  0  0  0  0  0  0
   -0.0730   15.8300   -4.5240 C   0  0  1  0  0  0  0  0  0  0  0  0
    0.9050   16.8650   -5.0350 C   0  0  0  0  0  0  0  0  0  0  0  0
  2  1  1  1
  2  3  1  0
  2  4  1  0
  4  5  1  1
  3  6  1  0
  4  7  1  0
  6  7  1  0
  7  8  1  6
M  END
>  <%Rank>  (1416) 
nan

>  <N_hits>  (1416) 
2

>  <submitter_name>  (1416) 
nan

>  <original SMILES>  (1416) 
nan

>  <∆G_unbound>  (1416) 
0.021216

>  <∆G_bound>  (1416) 
-2.690156

>  <regarded>  (1416) 
6MEA_0_B_γ,5CB5_0_G_γ

>  <ref_pdb>  (1416) 
nan

>  <smiles>  (1416) 
CC1OCC(O)C1O

>  <submitter_email>  (1416) 
nan

>  <disregarded>  (1416) 


>  <LE>  (1416) 
-0.338922

>  <submitter_institution>  (1416) 
nan

>  <ref_mols>  (1416) 
6MEA_0_B,5CB5_0_G

>  <N_constrained_atoms>  (1416) 
8.0

>  <ref_url>  (1416) 
nan

>  <method>  (1416) 
nan

>  <comRMSD>  (1416) 
nan

>  <N_unconstrained_atoms>  (1416) 
0.0

>  <∆∆G>  (1416) 
-2.711373

>  <runtime>  (1416) 
22.520558

>  <generation_date>  (1416) 
nan

$$$$
mArh-5cms_L_11_L_α-5CB5_0_C_α
     RDKit          3D

 16 18  0  0  0  0  0  0  0  0999 V2000
   -1.8730   21.4360   -8.1170 C   0  0  0  0  0  0  0  0  0  0  0  0
   -1.5220   22.7510   -8.7310 C   0  0  0  0  0  0  0  0  0  0  0  0
   -2.6410   23.3110   -9.4920 N   0  0  0  0  0  0  0  0  0  0  0  0
   -3.0950   21.6640   -7.2570 C   0  0  2  0  0  0  0  0  0  0  0  0
   -4.1700   20.7580   -7.4450 O   0  0  0  0  0  0  0  0  0  0  0  0
   -3.7700   23.0330   -7.3460 C   0  0  1  0  0  0  0  0  0  0  0  0
   -3.6700   23.7200   -8.6210 C   0  0  2  0  0  0  0  0  0  0  0  0
   -3.3370   22.4010  -10.4090 C   0  0  1  0  0  0  0  0  0  0  0  0
   -5.1140   21.3550   -6.5660 C   0  0  1  0  0  0  0  0  0  0  0  0
   -5.1800   22.8150   -6.9820 C   0  0  1  0  0  0  0  0  0  0  0  0
   -2.6030   21.2210  -10.4220 O   0  0  0  0  0  0  0  0  0  0  0  0
   -6.3520   20.7620   -6.7660 O   0  0  0  0  0  0  0  0  0  0  0  0
   -5.5640   23.7470   -5.9930 O   0  0  0  0  0  0  0  0  0  0  0  0
   -4.8920   23.6710   -9.4950 C   0  0  2  0  0  0  0  0  0  0  0  0
   -4.7640   22.2750   -9.9480 C   0  0  0  0  0  0  0  0  0  0  0  0
   -4.8030   24.6310  -10.5220 O   0  0  0  0  0  0  0  0  0  0  0  0
  1  2  1  0
  2  3  1  0
  4  1  1  6
  4  5  1  0
  6  4  1  6
  7  3  1  6
  6  7  1  0
  3  8  1  0
  5  9  1  0
  6 10  1  0
  9 10  1  0
  8 11  1  1
  9 12  1  6
 10 13  1  1
  7 14  1  0
  8 15  1  0
 14 15  1  0
 14 16  1  6
M  END
>  <%Rank>  (1417) 
nan

>  <N_hits>  (1417) 
2

>  <submitter_name>  (1417) 
nan

>  <original SMILES>  (1417) 
nan

>  <∆G_unbound>  (1417) 
0.955798

>  <∆G_bound>  (1417) 
-3.039498

>  <regarded>  (1417) 
mArh-5cms_L_11_L_α,5CB5_0_C_α

>  <ref_pdb>  (1417) 
nan

>  <smiles>  (1417) 
OC1CC(O)N2CCC3OC(O)C(O)C3C12

>  <submitter_email>  (1417) 
nan

>  <disregarded>  (1417) 


>  <LE>  (1417) 
-0.249706

>  <submitter_institution>  (1417) 
nan

>  <ref_mols>  (1417) 
mArh-5cms_L_11_L,5CB5_0_C

>  <N_constrained_atoms>  (1417) 
11.0

>  <ref_url>  (1417) 
nan

>  <method>  (1417) 
nan

>  <comRMSD>  (1417) 
nan

>  <N_unconstrained_atoms>  (1417) 
5.0

>  <∆∆G>  (1417) 
-3.995296

>  <runtime>  (1417) 
34.799654

>  <generation_date>  (1417) 
nan

$$$$
5CB5_0_L_δ-mArh-5cms_L_11_L_γ
     RDKit          3D

 17 19  0  0  0  0  0  0  0  0999 V2000
   -3.5750   15.3810    1.4910 N   0  0  0  0  0  0  0  0  0  0  0  0
   -2.4820   14.8310    0.7030 C   0  0  1  0  0  0  0  0  0  0  0  0
   -2.3820   15.4500   -0.7180 C   0  0  1  0  0  0  0  0  0  0  0  0
   -1.3220   15.1270    1.4870 N   0  0  0  0  0  0  0  0  0  0  0  0
   -0.9390   15.2940   -1.2760 C   0  0  2  0  0  0  0  0  0  0  0  0
   -3.2880   14.8650   -1.7180 N   0  0  0  0  0  0  0  0  0  0  0  0
   -0.1100   14.5530    0.9340 C   0  0  0  0  0  0  0  0  0  0  0  0
   -1.1160   15.0790   -2.8420 C   0  0  1  0  0  0  0  0  0  0  0  0
   -2.6450   15.1890   -3.0060 C   0  0  0  0  0  0  0  0  0  0  0  0
   -0.2220   14.2850   -0.4940 N   0  0  0  0  0  0  0  0  0  0  0  0
   -0.5080   16.2780   -3.4650 O   0  0  0  0  0  0  0  0  0  0  0  0
   -0.4820   13.9230   -3.7300 C   0  0  2  0  0  0  0  0  0  0  0  0
    0.2260   12.8460   -3.1450 O   0  0  0  0  0  0  0  0  0  0  0  0
   -0.2110   15.9690   -4.8360 C   0  0  2  0  0  0  0  0  0  0  0  0
    0.4320   14.6060   -4.7630 C   0  0  2  0  0  0  0  0  0  0  0  0
    0.6470   17.0570   -5.4630 C   0  0  0  0  0  0  0  0  0  0  0  0
    0.4900   13.8880   -5.9940 O   0  0  0  0  0  0  0  0  0  0  0  0
  2  1  1  1
  2  3  1  0
  2  4  1  0
  3  5  1  0
  3  6  1  6
  4  7  1  0
  5  8  1  0
  6  9  1  0
  8  9  1  1
  5 10  1  1
  7 10  1  0
  8 11  1  0
  8 12  1  0
 12 13  1  1
 11 14  1  0
 12 15  1  0
 14 15  1  0
 14 16  1  1
 15 17  1  6
M  END
>  <%Rank>  (1418) 
nan

>  <N_hits>  (1418) 
2

>  <submitter_name>  (1418) 
nan

>  <original SMILES>  (1418) 
nan

>  <∆G_unbound>  (1418) 
0.690665

>  <∆G_bound>  (1418) 
-4.199811

>  <regarded>  (1418) 
5CB5_0_L_δ,mArh-5cms_L_11_L_γ

>  <ref_pdb>  (1418) 
nan

>  <smiles>  (1418) 
CC1OC2(CNC3C(N)NCNC32)C(O)C1O

>  <submitter_email>  (1418) 
nan

>  <disregarded>  (1418) 


>  <LE>  (1418) 
-0.287675

>  <submitter_institution>  (1418) 
nan

>  <ref_mols>  (1418) 
5CB5_0_L,mArh-5cms_L_11_L

>  <N_constrained_atoms>  (1418) 
17.0

>  <ref_url>  (1418) 
nan

>  <method>  (1418) 
nan

>  <comRMSD>  (1418) 
nan

>  <N_unconstrained_atoms>  (1418) 
0.0

>  <∆∆G>  (1418) 
-4.890476

>  <runtime>  (1418) 
29.482905

>  <generation_date>  (1418) 
nan

$$$$
mArh-5lw0_B_1_B_γ-mArh-5cms_N_13_N_γ
     RDKit          3D

  9  9  0  0  0  0  0  0  0  0999 V2000
   -0.6330   12.0490   -3.8520 O   0  0  0  0  0  0  0  0  0  0  0  0
   -0.6910   13.4680   -4.0380 C   0  0  1  0  0  0  0  0  0  0  0  0
   -0.6650   14.2150   -2.7140 C   0  0  0  0  0  0  0  0  0  0  0  0
    0.6170   13.9130   -4.6840 C   0  0  0  0  0  0  0  0  0  0  0  0
    1.6240   13.0270   -4.2270 O   0  0  0  0  0  0  0  0  0  0  0  0
    0.5850   13.8170   -6.0970 O   0  0  0  0  0  0  0  0  0  0  0  0
   -0.0790   15.4980   -2.9960 O   0  0  0  0  0  0  0  0  0  0  0  0
    0.7690   15.3640   -4.1660 C   0  0  2  0  0  0  0  0  0  0  0  0
    0.4280   16.4690   -5.1490 C   0  0  0  0  0  0  0  0  0  0  0  0
  2  1  1  1
  2  3  1  0
  2  4  1  0
  4  5  1  0
  4  6  1  0
  3  7  1  0
  4  8  1  0
  7  8  1  0
  8  9  1  6
M  END
>  <%Rank>  (1419) 
nan

>  <N_hits>  (1419) 
2

>  <submitter_name>  (1419) 
nan

>  <original SMILES>  (1419) 
nan

>  <∆G_unbound>  (1419) 
0.008934

>  <∆G_bound>  (1419) 
-2.736078

>  <regarded>  (1419) 
mArh-5lw0_B_1_B_γ,mArh-5cms_N_13_N_γ

>  <ref_pdb>  (1419) 
nan

>  <smiles>  (1419) 
CC1OCC(O)C1(O)O

>  <submitter_email>  (1419) 
nan

>  <disregarded>  (1419) 


>  <LE>  (1419) 
-0.305001

>  <submitter_institution>  (1419) 
nan

>  <ref_mols>  (1419) 
mArh-5lw0_B_1_B,mArh-5cms_N_13_N

>  <N_constrained_atoms>  (1419) 
9.0

>  <ref_url>  (1419) 
nan

>  <method>  (1419) 
nan

>  <comRMSD>  (1419) 
nan

>  <N_unconstrained_atoms>  (1419) 
0.0

>  <∆∆G>  (1419) 
-2.745012

>  <runtime>  (1419) 
30.506172

>  <generation_date>  (1419) 
nan

$$$$
mArh-5dus_0_A_γ-6WOJ_0_D_γ
     RDKit          3D

  8  8  0  0  0  0  0  0  0  0999 V2000
   -1.0460   12.4590   -4.2080 O   0  0  0  0  0  0  0  0  0  0  0  0
   -1.1230   13.8670   -4.0690 C   0  0  1  0  0  0  0  0  0  0  0  0
   -0.5990   14.3740   -2.7250 C   0  0  0  0  0  0  0  0  0  0  0  0
   -0.1200   14.4770   -5.0020 C   0  0  2  0  0  0  0  0  0  0  0  0
    1.0760   13.7150   -5.0230 O   0  0  0  0  0  0  0  0  0  0  0  0
    0.1620   15.5810   -3.0040 O   0  0  0  0  0  0  0  0  0  0  0  0
   -0.0730   15.8630   -4.3910 C   0  0  1  0  0  0  0  0  0  0  0  0
    0.9100   16.8560   -4.9660 C   0  0  0  0  0  0  0  0  0  0  0  0
  2  1  1  1
  2  3  1  0
  2  4  1  0
  4  5  1  1
  3  6  1  0
  4  7  1  0
  6  7  1  0
  7  8  1  6
M  END
>  <%Rank>  (1420) 
nan

>  <N_hits>  (1420) 
2

>  <submitter_name>  (1420) 
nan

>  <original SMILES>  (1420) 
nan

>  <∆G_unbound>  (1420) 
0.021216

>  <∆G_bound>  (1420) 
-2.559026

>  <regarded>  (1420) 
mArh-5dus_0_A_γ,6WOJ_0_D_γ

>  <ref_pdb>  (1420) 
nan

>  <smiles>  (1420) 
CC1OCC(O)C1O

>  <submitter_email>  (1420) 
nan

>  <disregarded>  (1420) 


>  <LE>  (1420) 
-0.32253

>  <submitter_institution>  (1420) 
nan

>  <ref_mols>  (1420) 
mArh-5dus_0_A,6WOJ_0_D

>  <N_constrained_atoms>  (1420) 
8.0

>  <ref_url>  (1420) 
nan

>  <method>  (1420) 
nan

>  <comRMSD>  (1420) 
nan

>  <N_unconstrained_atoms>  (1420) 
0.0

>  <∆∆G>  (1420) 
-2.580243

>  <runtime>  (1420) 
22.806352

>  <generation_date>  (1420) 
nan

$$$$
mArh-5cb3_0_A_α-6WOJ_0_D_α
     RDKit          3D

  9  9  0  0  0  0  0  0  0  0999 V2000
   -1.9790   21.9490   -8.1640 C   0  0  0  0  0  0  0  0  0  0  0  0
   -3.4490   22.0850   -8.5240 C   0  0  1  0  0  0  0  0  0  0  0  0
   -4.1670   21.3100   -7.5740 O   0  0  0  0  0  0  0  0  0  0  0  0
   -4.0040   23.5070   -8.4280 C   0  0  1  0  0  0  0  0  0  0  0  0
   -4.3610   24.0490   -9.6900 O   0  0  0  0  0  0  0  0  0  0  0  0
   -5.4340   21.9010   -7.3610 C   0  0  2  0  0  0  0  0  0  0  0  0
   -5.2930   23.3920   -7.6090 C   0  0  1  0  0  0  0  0  0  0  0  0
   -5.8090   21.6460   -6.0040 O   0  0  0  0  0  0  0  0  0  0  0  0
   -5.3320   24.1810   -6.4270 O   0  0  0  0  0  0  0  0  0  0  0  0
  2  1  1  1
  2  3  1  0
  2  4  1  0
  4  5  1  6
  3  6  1  0
  4  7  1  0
  6  7  1  0
  6  8  1  1
  7  9  1  1
M  END
>  <%Rank>  (1421) 
nan

>  <N_hits>  (1421) 
2

>  <submitter_name>  (1421) 
nan

>  <original SMILES>  (1421) 
nan

>  <∆G_unbound>  (1421) 
0.037019

>  <∆G_bound>  (1421) 
-6.484133

>  <regarded>  (1421) 
mArh-5cb3_0_A_α,6WOJ_0_D_α

>  <ref_pdb>  (1421) 
nan

>  <smiles>  (1421) 
CC1OC(O)C(O)C1O

>  <submitter_email>  (1421) 
nan

>  <disregarded>  (1421) 


>  <LE>  (1421) 
-0.724572

>  <submitter_institution>  (1421) 
nan

>  <ref_mols>  (1421) 
mArh-5cb3_0_A,6WOJ_0_D

>  <N_constrained_atoms>  (1421) 
9.0

>  <ref_url>  (1421) 
nan

>  <method>  (1421) 
nan

>  <comRMSD>  (1421) 
nan

>  <N_unconstrained_atoms>  (1421) 
0.0

>  <∆∆G>  (1421) 
-6.521152

>  <runtime>  (1421) 
25.554682

>  <generation_date>  (1421) 
nan

$$$$
5CB5_0_R_γ-mArh-5cms_A_0_A_γ
     RDKit          3D

  8  8  0  0  0  0  0  0  0  0999 V2000
   -0.7380   12.4380   -4.1180 O   0  0  0  0  0  0  0  0  0  0  0  0
   -0.9570   13.8440   -4.1840 C   0  0  1  0  0  0  0  0  0  0  0  0
   -0.7000   14.5320   -2.8450 C   0  0  0  0  0  0  0  0  0  0  0  0
    0.0970   14.4940   -5.0460 C   0  0  2  0  0  0  0  0  0  0  0  0
    1.3640   13.8800   -4.8490 O   0  0  0  0  0  0  0  0  0  0  0  0
   -0.0430   15.7870   -3.1410 O   0  0  0  0  0  0  0  0  0  0  0  0
   -0.0900   15.9290   -4.5650 C   0  0  1  0  0  0  0  0  0  0  0  0
    0.8670   17.0050   -5.0440 C   0  0  0  0  0  0  0  0  0  0  0  0
  2  1  1  1
  2  3  1  0
  2  4  1  0
  4  5  1  1
  3  6  1  0
  4  7  1  0
  6  7  1  0
  7  8  1  6
M  END
>  <%Rank>  (1422) 
nan

>  <N_hits>  (1422) 
2

>  <submitter_name>  (1422) 
nan

>  <original SMILES>  (1422) 
nan

>  <∆G_unbound>  (1422) 
0.021216

>  <∆G_bound>  (1422) 
-2.816861

>  <regarded>  (1422) 
5CB5_0_R_γ,mArh-5cms_A_0_A_γ

>  <ref_pdb>  (1422) 
nan

>  <smiles>  (1422) 
CC1OCC(O)C1O

>  <submitter_email>  (1422) 
nan

>  <disregarded>  (1422) 


>  <LE>  (1422) 
-0.35476

>  <submitter_institution>  (1422) 
nan

>  <ref_mols>  (1422) 
5CB5_0_R,mArh-5cms_A_0_A

>  <N_constrained_atoms>  (1422) 
8.0

>  <ref_url>  (1422) 
nan

>  <method>  (1422) 
nan

>  <comRMSD>  (1422) 
nan

>  <N_unconstrained_atoms>  (1422) 
0.0

>  <∆∆G>  (1422) 
-2.838078

>  <runtime>  (1422) 
22.367074

>  <generation_date>  (1422) 
nan

$$$$
mArh-5cms_I_8_I_α-3VFQ_0_A_α
     RDKit          3D

 17 18  0  0  0  0  0  0  0  0999 V2000
   -2.0160   21.4460   -8.3640 C   0  0  0  0  0  0  0  0  0  0  0  0
   -2.9610   21.9050   -9.4700 C   0  0  1  0  0  0  0  0  0  0  0  0
   -4.3660   21.6310   -9.3280 O   0  0  0  0  0  0  0  0  0  0  0  0
   -3.1200   23.3660   -9.5100 C   0  0  1  0  0  0  0  0  0  0  0  0
   -1.9330   24.0780   -9.3580 O   0  0  0  0  0  0  0  0  0  0  0  0
   -5.0700   22.7180  -10.0340 C   0  0  2  0  0  0  0  0  0  0  0  0
   -3.9990   23.3930  -10.7690 C   0  0  2  0  0  0  0  0  0  0  0  0
   -5.5670   23.6790   -9.1460 O   0  0  0  0  0  0  0  0  0  0  0  0
   -3.7920   22.5040  -11.8620 O   0  0  0  0  0  0  0  0  0  0  0  0
   -5.7510   22.9170   -8.0170 C   0  0  2  0  0  0  0  0  0  0  0  0
   -4.4520   22.5800   -7.4590 O   0  0  0  0  0  0  0  0  0  0  0  0
   -6.3080   21.5770   -8.4830 C   0  0  2  0  0  0  0  0  0  0  0  0
   -7.7210   21.4120   -8.7260 O   0  0  0  0  0  0  0  0  0  0  0  0
   -4.4210   21.1490   -7.3930 C   0  0  2  0  0  0  0  0  0  0  0  0
   -5.8720   20.8670   -7.2600 C   0  0  1  0  0  0  0  0  0  0  0  0
   -3.5720   20.6640   -6.2500 C   0  0  0  0  0  0  0  0  0  0  0  0
   -6.2930   21.4430   -6.0730 O   0  0  0  0  0  0  0  0  0  0  0  0
  2  1  1  1
  2  3  1  0
  2  4  1  0
  4  5  1  6
  3  6  1  0
  4  7  1  0
  6  7  1  0
  6  8  1  1
  7  9  1  6
 10  8  1  6
 10 11  1  0
 10 12  1  0
 12 13  1  1
 11 14  1  0
 12 15  1  0
 14 15  1  0
 14 16  1  1
 15 17  1  1
M  END
>  <%Rank>  (1423) 
nan

>  <N_hits>  (1423) 
2

>  <submitter_name>  (1423) 
nan

>  <original SMILES>  (1423) 
nan

>  <∆G_unbound>  (1423) 
0.564275

>  <∆G_bound>  (1423) 
0.508224

>  <regarded>  (1423) 
mArh-5cms_I_8_I_α,3VFQ_0_A_α

>  <ref_pdb>  (1423) 
nan

>  <smiles>  (1423) 
CC1OC(OC2OC(C)C(O)C2O)C(O)C1O

>  <submitter_email>  (1423) 
nan

>  <disregarded>  (1423) 


>  <LE>  (1423) 
-0.003297

>  <submitter_institution>  (1423) 
nan

>  <ref_mols>  (1423) 
mArh-5cms_I_8_I,3VFQ_0_A

>  <N_constrained_atoms>  (1423) 
17.0

>  <ref_url>  (1423) 
nan

>  <method>  (1423) 
nan

>  <comRMSD>  (1423) 
nan

>  <N_unconstrained_atoms>  (1423) 
0.0

>  <∆∆G>  (1423) 
-0.056051

>  <runtime>  (1423) 
44.03349

>  <generation_date>  (1423) 
nan

$$$$
mArh-5cb3_0_A_γ-5MQX_0_A_γ
     RDKit          3D

 14 15  0  0  0  0  0  0  0  0999 V2000
    0.0590   17.2080   -5.6640 C   0  0  0  0  0  0  0  0  0  0  0  0
    0.6770   16.0810   -4.8620 C   0  0  1  0  0  0  0  0  0  0  0  0
    0.5270   16.4520   -3.4760 O   0  0  0  0  0  0  0  0  0  0  0  0
    0.0350   14.6840   -4.9980 C   0  0  1  0  0  0  0  0  0  0  0  0
    0.7200   13.8520   -5.9380 O   0  0  0  0  0  0  0  0  0  0  0  0
    0.0670   15.2980   -2.7840 C   0  0  0  0  0  0  0  0  0  0  0  0
    0.4370   14.1430   -3.6670 C   0  0  1  0  0  0  0  0  0  0  0  0
   -0.3100   12.9850   -3.0990 C   0  0  1  0  0  0  0  0  0  0  0  0
   -1.4640   13.5070   -2.4850 O   0  0  0  0  0  0  0  0  0  0  0  0
   -0.9020   11.8170   -3.8490 C   0  0  1  0  0  0  0  0  0  0  0  0
    0.0560   11.0380   -4.5580 O   0  0  0  0  0  0  0  0  0  0  0  0
   -1.8490   12.3580   -1.7510 C   0  0  0  0  0  0  0  0  0  0  0  0
   -1.3080   11.1400   -2.5440 C   0  0  2  0  0  0  0  0  0  0  0  0
   -0.1200   10.6300   -1.9050 O   0  0  0  0  0  0  0  0  0  0  0  0
  2  1  1  6
  2  3  1  0
  2  4  1  0
  4  5  1  6
  3  6  1  0
  4  7  1  0
  7  6  1  1
  7  8  1  0
  8  9  1  6
  8 10  1  0
 10 11  1  1
  9 12  1  0
 10 13  1  0
 12 13  1  0
 13 14  1  1
M  END
>  <%Rank>  (1424) 
nan

>  <N_hits>  (1424) 
2

>  <submitter_name>  (1424) 
nan

>  <original SMILES>  (1424) 
nan

>  <∆G_unbound>  (1424) 
0.297118

>  <∆G_bound>  (1424) 
-4.029141

>  <regarded>  (1424) 
mArh-5cb3_0_A_γ,5MQX_0_A_γ

>  <ref_pdb>  (1424) 
nan

>  <smiles>  (1424) 
CC1OCC(C2OCC(O)C2O)C1O

>  <submitter_email>  (1424) 
nan

>  <disregarded>  (1424) 


>  <LE>  (1424) 
-0.309019

>  <submitter_institution>  (1424) 
nan

>  <ref_mols>  (1424) 
mArh-5cb3_0_A,5MQX_0_A

>  <N_constrained_atoms>  (1424) 
14.0

>  <ref_url>  (1424) 
nan

>  <method>  (1424) 
nan

>  <comRMSD>  (1424) 
nan

>  <N_unconstrained_atoms>  (1424) 
0.0

>  <∆∆G>  (1424) 
-4.326259

>  <runtime>  (1424) 
27.860999

>  <generation_date>  (1424) 
nan

$$$$
5CB5_0_H_γ-mArh-5cms_A_0_A_γ
     RDKit          3D

  8  8  0  0  0  0  0  0  0  0999 V2000
   -0.6540   12.4190   -3.8670 O   0  0  0  0  0  0  0  0  0  0  0  0
   -1.1040   13.7730   -3.9190 C   0  0  1  0  0  0  0  0  0  0  0  0
   -0.6990   14.5490   -2.6670 C   0  0  0  0  0  0  0  0  0  0  0  0
   -0.3380   14.4740   -5.0100 C   0  0  2  0  0  0  0  0  0  0  0  0
    0.9200   13.8370   -5.2070 O   0  0  0  0  0  0  0  0  0  0  0  0
   -0.0240   15.7520   -3.0970 O   0  0  0  0  0  0  0  0  0  0  0  0
   -0.3120   15.9100   -4.4920 C   0  0  1  0  0  0  0  0  0  0  0  0
    0.6590   16.8820   -5.1420 C   0  0  0  0  0  0  0  0  0  0  0  0
  2  1  1  1
  2  3  1  0
  2  4  1  0
  4  5  1  1
  3  6  1  0
  4  7  1  0
  6  7  1  0
  7  8  1  6
M  END
>  <%Rank>  (1425) 
nan

>  <N_hits>  (1425) 
2

>  <submitter_name>  (1425) 
nan

>  <original SMILES>  (1425) 
nan

>  <∆G_unbound>  (1425) 
0.021216

>  <∆G_bound>  (1425) 
-2.682148

>  <regarded>  (1425) 
5CB5_0_H_γ,mArh-5cms_A_0_A_γ

>  <ref_pdb>  (1425) 
nan

>  <smiles>  (1425) 
CC1OCC(O)C1O

>  <submitter_email>  (1425) 
nan

>  <disregarded>  (1425) 


>  <LE>  (1425) 
-0.337921

>  <submitter_institution>  (1425) 
nan

>  <ref_mols>  (1425) 
5CB5_0_H,mArh-5cms_A_0_A

>  <N_constrained_atoms>  (1425) 
8.0

>  <ref_url>  (1425) 
nan

>  <method>  (1425) 
nan

>  <comRMSD>  (1425) 
nan

>  <N_unconstrained_atoms>  (1425) 
0.0

>  <∆∆G>  (1425) 
-2.703365

>  <runtime>  (1425) 
21.980193

>  <generation_date>  (1425) 
nan

$$$$
mArh-5cb5_O_0_O_α-mArh-5cb5_N_0_N_α
     RDKit          3D

  9  9  0  0  0  0  0  0  0  0999 V2000
   -2.0510   22.0620   -8.1100 C   0  0  0  0  0  0  0  0  0  0  0  0
   -3.4020   22.2520   -8.7800 C   0  0  1  0  0  0  0  0  0  0  0  0
   -4.3110   21.3140   -8.2400 O   0  0  0  0  0  0  0  0  0  0  0  0
   -4.0060   23.6380   -8.5840 C   0  0  1  0  0  0  0  0  0  0  0  0
   -4.3150   24.2490   -9.8210 O   0  0  0  0  0  0  0  0  0  0  0  0
   -5.4800   21.9410   -7.7270 C   0  0  2  0  0  0  0  0  0  0  0  0
   -5.3240   23.4420   -7.8380 C   0  0  1  0  0  0  0  0  0  0  0  0
   -5.6090   21.5790   -6.3460 O   0  0  0  0  0  0  0  0  0  0  0  0
   -5.4000   24.1260   -6.5870 O   0  0  0  0  0  0  0  0  0  0  0  0
  2  1  1  1
  2  3  1  0
  2  4  1  0
  4  5  1  6
  3  6  1  0
  4  7  1  0
  6  7  1  0
  6  8  1  1
  7  9  1  1
M  END
>  <%Rank>  (1426) 
nan

>  <N_hits>  (1426) 
2

>  <submitter_name>  (1426) 
nan

>  <original SMILES>  (1426) 
nan

>  <∆G_unbound>  (1426) 
0.037019

>  <∆G_bound>  (1426) 
-6.389451

>  <regarded>  (1426) 
mArh-5cb5_O_0_O_α,mArh-5cb5_N_0_N_α

>  <ref_pdb>  (1426) 
nan

>  <smiles>  (1426) 
CC1OC(O)C(O)C1O

>  <submitter_email>  (1426) 
nan

>  <disregarded>  (1426) 


>  <LE>  (1426) 
-0.714052

>  <submitter_institution>  (1426) 
nan

>  <ref_mols>  (1426) 
mArh-5cb5_O_0_O,mArh-5cb5_N_0_N

>  <N_constrained_atoms>  (1426) 
9.0

>  <ref_url>  (1426) 
nan

>  <method>  (1426) 
nan

>  <comRMSD>  (1426) 
nan

>  <N_unconstrained_atoms>  (1426) 
0.0

>  <∆∆G>  (1426) 
-6.42647

>  <runtime>  (1426) 
23.901527

>  <generation_date>  (1426) 
nan

$$$$
5CMS_0_N_α-mArh-5cms_M_12_M_α
     RDKit          3D

 10 10  0  0  0  0  0  0  0  0999 V2000
   -2.0220   22.4880   -8.7380 C   0  0  0  0  0  0  0  0  0  0  0  0
   -3.1920   22.0450   -9.6150 C   0  0  1  0  0  0  0  0  0  0  0  0
   -4.3000   21.7390   -8.7680 O   0  0  0  0  0  0  0  0  0  0  0  0
   -3.7650   23.0240  -10.6570 C   0  0  0  0  0  0  0  0  0  0  0  0
   -3.8070   22.5060  -11.9650 O   0  0  0  0  0  0  0  0  0  0  0  0
   -3.1640   24.3010  -10.5920 O   0  0  0  0  0  0  0  0  0  0  0  0
   -5.2560   22.7970   -8.9200 C   0  0  2  0  0  0  0  0  0  0  0  0
   -5.1530   23.3630  -10.3140 C   0  0  2  0  0  0  0  0  0  0  0  0
   -4.9350   23.8390   -8.0200 O   0  0  0  0  0  0  0  0  0  0  0  0
   -5.9770   22.8240  -11.3460 O   0  0  0  0  0  0  0  0  0  0  0  0
  2  1  1  1
  2  3  1  0
  2  4  1  0
  4  5  1  0
  4  6  1  0
  3  7  1  0
  4  8  1  0
  7  8  1  0
  7  9  1  1
  8 10  1  6
M  END
>  <%Rank>  (1427) 
nan

>  <N_hits>  (1427) 
2

>  <submitter_name>  (1427) 
nan

>  <original SMILES>  (1427) 
nan

>  <∆G_unbound>  (1427) 
0.056816

>  <∆G_bound>  (1427) 
-1.082689

>  <regarded>  (1427) 
5CMS_0_N_α,mArh-5cms_M_12_M_α

>  <ref_pdb>  (1427) 
nan

>  <smiles>  (1427) 
CC1OC(O)C(O)C1(O)O

>  <submitter_email>  (1427) 
nan

>  <disregarded>  (1427) 


>  <LE>  (1427) 
-0.11395

>  <submitter_institution>  (1427) 
nan

>  <ref_mols>  (1427) 
5CMS_0_N,mArh-5cms_M_12_M

>  <N_constrained_atoms>  (1427) 
10.0

>  <ref_url>  (1427) 
nan

>  <method>  (1427) 
nan

>  <comRMSD>  (1427) 
nan

>  <N_unconstrained_atoms>  (1427) 
0.0

>  <∆∆G>  (1427) 
-1.139505

>  <runtime>  (1427) 
28.429403

>  <generation_date>  (1427) 
nan

$$$$
6WOJ_0_C_δ-mArh-6mea_B_0_B_γ
     RDKit          3D

 17 19  0  0  0  0  0  0  0  0999 V2000
   -3.8860   15.2520    1.4630 N   0  0  0  0  0  0  0  0  0  0  0  0
   -2.8150   14.5510    0.7830 C   0  0  1  0  0  0  0  0  0  0  0  0
   -2.5480   15.0500   -0.6380 C   0  0  1  0  0  0  0  0  0  0  0  0
   -1.6510   14.8150    1.5890 N   0  0  0  0  0  0  0  0  0  0  0  0
   -1.4340   14.1930   -1.2340 C   0  0  1  0  0  0  0  0  0  0  0  0
   -3.6130   15.0090   -1.6440 N   0  0  0  0  0  0  0  0  0  0  0  0
   -0.4250   14.2080    1.0720 C   0  0  0  0  0  0  0  0  0  0  0  0
   -1.4460   14.6960   -2.7340 C   0  0  1  0  0  0  0  0  0  0  0  0
   -2.8220   15.3920   -2.8240 C   0  0  0  0  0  0  0  0  0  0  0  0
   -0.2460   14.3520   -0.3830 N   0  0  0  0  0  0  0  0  0  0  0  0
   -0.3730   15.6900   -2.9280 O   0  0  0  0  0  0  0  0  0  0  0  0
   -1.2960   13.7620   -3.9720 C   0  0  2  0  0  0  0  0  0  0  0  0
   -1.0560   12.3850   -3.7800 O   0  0  0  0  0  0  0  0  0  0  0  0
   -0.2550   15.8290   -4.3520 C   0  0  2  0  0  0  0  0  0  0  0  0
   -0.2200   14.3950   -4.8620 C   0  0  1  0  0  0  0  0  0  0  0  0
    0.9350   16.6790   -4.7360 C   0  0  0  0  0  0  0  0  0  0  0  0
    1.0280   13.7200   -4.7540 O   0  0  0  0  0  0  0  0  0  0  0  0
  2  1  1  1
  2  3  1  0
  2  4  1  0
  3  5  1  0
  3  6  1  6
  4  7  1  0
  5  8  1  0
  6  9  1  0
  8  9  1  6
  5 10  1  1
  7 10  1  0
  8 11  1  0
  8 12  1  0
 12 13  1  1
 11 14  1  0
 12 15  1  0
 14 15  1  0
 14 16  1  1
 15 17  1  1
M  END
>  <%Rank>  (1428) 
nan

>  <N_hits>  (1428) 
2

>  <submitter_name>  (1428) 
nan

>  <original SMILES>  (1428) 
nan

>  <∆G_unbound>  (1428) 
0.690665

>  <∆G_bound>  (1428) 
-3.625775

>  <regarded>  (1428) 
6WOJ_0_C_δ,mArh-6mea_B_0_B_γ

>  <ref_pdb>  (1428) 
nan

>  <smiles>  (1428) 
CC1OC2(CNC3C(N)NCNC32)C(O)C1O

>  <submitter_email>  (1428) 
nan

>  <disregarded>  (1428) 


>  <LE>  (1428) 
-0.253908

>  <submitter_institution>  (1428) 
nan

>  <ref_mols>  (1428) 
6WOJ_0_C,mArh-6mea_B_0_B

>  <N_constrained_atoms>  (1428) 
17.0

>  <ref_url>  (1428) 
nan

>  <method>  (1428) 
nan

>  <comRMSD>  (1428) 
nan

>  <N_unconstrained_atoms>  (1428) 
0.0

>  <∆∆G>  (1428) 
-4.31644

>  <runtime>  (1428) 
28.863302

>  <generation_date>  (1428) 
nan

$$$$
mArh-5mqx_0_A_γ-6WOJ_0_D_γ
     RDKit          3D

 15 16  0  0  0  0  0  0  0  0999 V2000
   -0.7510   10.5370   -2.1790 O   0  0  0  0  0  0  0  0  0  0  0  0
   -0.9440   11.9490   -1.9700 C   0  0  2  0  0  0  0  0  0  0  0  0
   -2.3780   12.3650   -1.6650 C   0  0  0  0  0  0  0  0  0  0  0  0
   -0.7340   12.7310   -3.2400 C   0  0  1  0  0  0  0  0  0  0  0  0
    0.2560   12.1750   -4.0400 O   0  0  0  0  0  0  0  0  0  0  0  0
   -2.8110   13.2260   -2.7340 O   0  0  0  0  0  0  0  0  0  0  0  0
   -2.0880   12.7990   -3.8810 C   0  0  1  0  0  0  0  0  0  0  0  0
   -2.2630   13.8660   -4.9560 C   0  0  0  0  0  0  0  0  0  0  0  0
    1.1780   13.2480   -3.9400 C   0  0  2  0  0  0  0  0  0  0  0  0
    0.8880   14.1550   -2.7260 C   0  0  0  0  0  0  0  0  0  0  0  0
    0.8870   14.1560   -5.0900 C   0  0  2  0  0  0  0  0  0  0  0  0
    1.6040   13.6040   -6.1570 O   0  0  0  0  0  0  0  0  0  0  0  0
    0.7870   15.5120   -3.1830 O   0  0  0  0  0  0  0  0  0  0  0  0
    1.2920   15.5220   -4.5250 C   0  0  2  0  0  0  0  0  0  0  0  0
    0.7770   16.7840   -5.2120 C   0  0  0  0  0  0  0  0  0  0  0  0
  2  1  1  6
  2  3  1  0
  2  4  1  0
  4  5  1  6
  3  6  1  0
  4  7  1  0
  6  7  1  0
  7  8  1  6
  9  5  1  1
  9 10  1  0
  9 11  1  0
 11 12  1  6
 10 13  1  0
 11 14  1  0
 13 14  1  0
 14 15  1  6
M  END
>  <%Rank>  (1429) 
nan

>  <N_hits>  (1429) 
2

>  <submitter_name>  (1429) 
nan

>  <original SMILES>  (1429) 
nan

>  <∆G_unbound>  (1429) 
0.129431

>  <∆G_bound>  (1429) 
-2.927467

>  <regarded>  (1429) 
mArh-5mqx_0_A_γ,6WOJ_0_D_γ

>  <ref_pdb>  (1429) 
nan

>  <smiles>  (1429) 
CC1OCC(OC2C(O)COC2C)C1O

>  <submitter_email>  (1429) 
nan

>  <disregarded>  (1429) 


>  <LE>  (1429) 
-0.203793

>  <submitter_institution>  (1429) 
nan

>  <ref_mols>  (1429) 
mArh-5mqx_0_A,6WOJ_0_D

>  <N_constrained_atoms>  (1429) 
15.0

>  <ref_url>  (1429) 
nan

>  <method>  (1429) 
nan

>  <comRMSD>  (1429) 
nan

>  <N_unconstrained_atoms>  (1429) 
0.0

>  <∆∆G>  (1429) 
-3.056898

>  <runtime>  (1429) 
28.379629

>  <generation_date>  (1429) 
nan

$$$$
5CMS_0_L_δ-5CB3_0_A_γ
     RDKit          3D

 17 19  0  0  0  0  0  0  0  0999 V2000
   -3.6170   15.4290    1.4840 N   0  0  0  0  0  0  0  0  0  0  0  0
   -2.5370   14.7710    0.7710 C   0  0  1  0  0  0  0  0  0  0  0  0
   -2.3420   15.2420   -0.6800 C   0  0  1  0  0  0  0  0  0  0  0  0
   -1.3760   15.0870    1.5640 N   0  0  0  0  0  0  0  0  0  0  0  0
   -1.1030   14.5230   -1.1960 C   0  0  1  0  0  0  0  0  0  0  0  0
   -3.3730   14.9470   -1.6820 N   0  0  0  0  0  0  0  0  0  0  0  0
   -0.1050   14.6370    1.0030 C   0  0  0  0  0  0  0  0  0  0  0  0
   -1.1700   14.7810   -2.7340 C   0  0  1  0  0  0  0  0  0  0  0  0
   -2.6410   15.1960   -2.9420 C   0  0  0  0  0  0  0  0  0  0  0  0
    0.0340   14.9560   -0.4060 N   0  0  0  0  0  0  0  0  0  0  0  0
   -0.2890   15.8950   -3.1070 O   0  0  0  0  0  0  0  0  0  0  0  0
   -0.7420   13.6580   -3.7080 C   0  0  1  0  0  0  0  0  0  0  0  0
   -1.7360   12.7830   -4.2000 O   0  0  0  0  0  0  0  0  0  0  0  0
   -0.2360   15.8260   -4.5410 C   0  0  2  0  0  0  0  0  0  0  0  0
   -0.0020   14.3530   -4.8540 C   0  0  1  0  0  0  0  0  0  0  0  0
    0.7910   16.7810   -5.1290 C   0  0  0  0  0  0  0  0  0  0  0  0
    1.3570   13.9410   -4.8840 O   0  0  0  0  0  0  0  0  0  0  0  0
  2  1  1  1
  2  3  1  0
  2  4  1  0
  3  5  1  0
  3  6  1  6
  4  7  1  0
  5  8  1  0
  6  9  1  0
  8  9  1  6
  5 10  1  1
  7 10  1  0
  8 11  1  0
  8 12  1  0
 12 13  1  6
 11 14  1  0
 12 15  1  0
 14 15  1  0
 14 16  1  1
 15 17  1  1
M  END
>  <%Rank>  (1430) 
nan

>  <N_hits>  (1430) 
2

>  <submitter_name>  (1430) 
nan

>  <original SMILES>  (1430) 
nan

>  <∆G_unbound>  (1430) 
0.690665

>  <∆G_bound>  (1430) 
-3.328632

>  <regarded>  (1430) 
5CMS_0_L_δ,5CB3_0_A_γ

>  <ref_pdb>  (1430) 
nan

>  <smiles>  (1430) 
CC1OC2(CNC3C(N)NCNC32)C(O)C1O

>  <submitter_email>  (1430) 
nan

>  <disregarded>  (1430) 


>  <LE>  (1430) 
-0.236429

>  <submitter_institution>  (1430) 
nan

>  <ref_mols>  (1430) 
5CMS_0_L,5CB3_0_A

>  <N_constrained_atoms>  (1430) 
17.0

>  <ref_url>  (1430) 
nan

>  <method>  (1430) 
nan

>  <comRMSD>  (1430) 
nan

>  <N_unconstrained_atoms>  (1430) 
0.0

>  <∆∆G>  (1430) 
-4.019297

>  <runtime>  (1430) 
30.365216

>  <generation_date>  (1430) 
nan

$$$$
5CB5_0_H_γ-3Q6Z_0_A_δ
     RDKit          3D

 17 19  0  0  0  0  0  0  0  0999 V2000
   -1.4340   12.1850   -3.7840 O   0  0  0  0  0  0  0  0  0  0  0  0
   -0.9910   13.5050   -3.5490 C   0  0  2  0  0  0  0  0  0  0  0  0
   -2.0440   14.5480   -3.1530 C   0  0  2  0  0  0  0  0  0  0  0  0
   -0.3890   14.0860   -4.8450 C   0  0  2  0  0  0  0  0  0  0  0  0
    0.9710   13.7120   -4.9950 O   0  0  0  0  0  0  0  0  0  0  0  0
   -1.2750   15.7410   -3.4450 O   0  0  0  0  0  0  0  0  0  0  0  0
   -0.6460   15.5860   -4.7220 C   0  0  1  0  0  0  0  0  0  0  0  0
   -2.6880   14.6820   -1.7150 C   0  0  1  0  0  0  0  0  0  0  0  0
   -3.3260   14.4670   -4.0330 C   0  0  0  0  0  0  0  0  0  0  0  0
    0.5540   16.5350   -4.8120 C   0  0  0  0  0  0  0  0  0  0  0  0
   -4.1580   15.0680   -2.0220 C   0  0  1  0  0  0  0  0  0  0  0  0
   -4.4950   14.2060   -3.1530 N   0  0  0  0  0  0  0  0  0  0  0  0
   -2.5690   13.7030   -0.6390 N   0  0  0  0  0  0  0  0  0  0  0  0
   -3.1940   14.2200    0.5750 C   0  0  0  0  0  0  0  0  0  0  0  0
   -5.0580   15.0950   -0.7340 C   0  0  1  0  0  0  0  0  0  0  0  0
   -6.4280   14.6800   -0.9610 N   0  0  0  0  0  0  0  0  0  0  0  0
   -4.6220   14.2990    0.3960 N   0  0  0  0  0  0  0  0  0  0  0  0
  2  1  1  6
  2  3  1  0
  2  4  1  0
  4  5  1  1
  3  6  1  0
  4  7  1  0
  6  7  1  0
  3  8  1  0
  3  9  1  6
  7 10  1  1
  8 11  1  0
  9 12  1  0
 11 12  1  6
  8 13  1  6
 13 14  1  0
 11 15  1  0
 15 16  1  6
 14 17  1  0
 15 17  1  0
M  END
>  <%Rank>  (1431) 
nan

>  <N_hits>  (1431) 
2

>  <submitter_name>  (1431) 
nan

>  <original SMILES>  (1431) 
nan

>  <∆G_unbound>  (1431) 
0.631637

>  <∆G_bound>  (1431) 
-3.144907

>  <regarded>  (1431) 
5CB5_0_H_γ,3Q6Z_0_A_δ

>  <ref_pdb>  (1431) 
nan

>  <smiles>  (1431) 
CC1OC2(CNC3C(N)NCNC32)C(O)C1O

>  <submitter_email>  (1431) 
nan

>  <disregarded>  (1431) 


>  <LE>  (1431) 
-0.22215

>  <submitter_institution>  (1431) 
nan

>  <ref_mols>  (1431) 
5CB5_0_H,3Q6Z_0_A

>  <N_constrained_atoms>  (1431) 
17.0

>  <ref_url>  (1431) 
nan

>  <method>  (1431) 
nan

>  <comRMSD>  (1431) 
nan

>  <N_unconstrained_atoms>  (1431) 
0.0

>  <∆∆G>  (1431) 
-3.776544

>  <runtime>  (1431) 
28.268447

>  <generation_date>  (1431) 
nan

$$$$
5CB3_0_A_δ-mArh-6mea_B_0_B_γ
     RDKit          3D

 17 19  0  0  0  0  0  0  0  0999 V2000
   -3.9040   15.5540    1.6650 N   0  0  0  0  0  0  0  0  0  0  0  0
   -2.8350   14.8720    0.9510 C   0  0  1  0  0  0  0  0  0  0  0  0
   -2.6510   15.3080   -0.5120 C   0  0  1  0  0  0  0  0  0  0  0  0
   -1.6310   15.1860    1.6790 N   0  0  0  0  0  0  0  0  0  0  0  0
   -1.4470   14.5340   -1.0420 C   0  0  1  0  0  0  0  0  0  0  0  0
   -3.7090   15.0390   -1.4930 N   0  0  0  0  0  0  0  0  0  0  0  0
   -0.4410   14.5440    1.1420 C   0  0  0  0  0  0  0  0  0  0  0  0
   -1.4920   14.8240   -2.5780 C   0  0  1  0  0  0  0  0  0  0  0  0
   -2.9780   15.2260   -2.7730 C   0  0  0  0  0  0  0  0  0  0  0  0
   -0.2770   14.8980   -0.2520 N   0  0  0  0  0  0  0  0  0  0  0  0
   -0.5770   15.9370   -2.8780 O   0  0  0  0  0  0  0  0  0  0  0  0
   -1.0180   13.7390   -3.5840 C   0  0  1  0  0  0  0  0  0  0  0  0
   -1.9760   12.8510   -4.1200 O   0  0  0  0  0  0  0  0  0  0  0  0
   -0.3620   15.9320   -4.3030 C   0  0  2  0  0  0  0  0  0  0  0  0
   -0.2990   14.4680   -4.7270 C   0  0  1  0  0  0  0  0  0  0  0  0
    0.8640   16.7410   -4.6690 C   0  0  0  0  0  0  0  0  0  0  0  0
    1.0100   13.9370   -4.9230 O   0  0  0  0  0  0  0  0  0  0  0  0
  2  1  1  1
  2  3  1  0
  2  4  1  0
  3  5  1  0
  3  6  1  6
  4  7  1  0
  5  8  1  0
  6  9  1  0
  8  9  1  6
  5 10  1  1
  7 10  1  0
  8 11  1  0
  8 12  1  0
 12 13  1  6
 11 14  1  0
 12 15  1  0
 14 15  1  0
 14 16  1  1
 15 17  1  1
M  END
>  <%Rank>  (1432) 
nan

>  <N_hits>  (1432) 
2

>  <submitter_name>  (1432) 
nan

>  <original SMILES>  (1432) 
nan

>  <∆G_unbound>  (1432) 
0.690665

>  <∆G_bound>  (1432) 
-3.278515

>  <regarded>  (1432) 
5CB3_0_A_δ,mArh-6mea_B_0_B_γ

>  <ref_pdb>  (1432) 
nan

>  <smiles>  (1432) 
CC1OC2(CNC3C(N)NCNC32)C(O)C1O

>  <submitter_email>  (1432) 
nan

>  <disregarded>  (1432) 


>  <LE>  (1432) 
-0.233481

>  <submitter_institution>  (1432) 
nan

>  <ref_mols>  (1432) 
5CB3_0_A,mArh-6mea_B_0_B

>  <N_constrained_atoms>  (1432) 
17.0

>  <ref_url>  (1432) 
nan

>  <method>  (1432) 
nan

>  <comRMSD>  (1432) 
nan

>  <N_unconstrained_atoms>  (1432) 
0.0

>  <∆∆G>  (1432) 
-3.96918

>  <runtime>  (1432) 
30.04022

>  <generation_date>  (1432) 
nan

$$$$
mArh-5cms_R_17_R_γ-5CMS_0_H_γ
     RDKit          3D

  8  8  0  0  0  0  0  0  0  0999 V2000
    0.2580   12.2780   -3.8900 O   0  0  0  0  0  0  0  0  0  0  0  0
   -0.3120   13.5780   -4.0860 C   0  0  1  0  0  0  0  0  0  0  0  0
   -0.0060   14.5030   -2.9130 C   0  0  0  0  0  0  0  0  0  0  0  0
    0.3680   14.2870   -5.2420 C   0  0  2  0  0  0  0  0  0  0  0  0
    1.7120   13.8460   -5.3630 O   0  0  0  0  0  0  0  0  0  0  0  0
    0.3400   15.8040   -3.4430 O   0  0  0  0  0  0  0  0  0  0  0  0
    0.1060   15.7540   -4.8550 C   0  0  1  0  0  0  0  0  0  0  0  0
    0.8790   16.8700   -5.5370 C   0  0  0  0  0  0  0  0  0  0  0  0
  2  1  1  1
  2  3  1  0
  2  4  1  0
  4  5  1  1
  3  6  1  0
  4  7  1  0
  6  7  1  0
  7  8  1  6
M  END
>  <%Rank>  (1433) 
nan

>  <N_hits>  (1433) 
2

>  <submitter_name>  (1433) 
nan

>  <original SMILES>  (1433) 
nan

>  <∆G_unbound>  (1433) 
0.021216

>  <∆G_bound>  (1433) 
-2.85097

>  <regarded>  (1433) 
mArh-5cms_R_17_R_γ,5CMS_0_H_γ

>  <ref_pdb>  (1433) 
nan

>  <smiles>  (1433) 
CC1OCC(O)C1O

>  <submitter_email>  (1433) 
nan

>  <disregarded>  (1433) 


>  <LE>  (1433) 
-0.359023

>  <submitter_institution>  (1433) 
nan

>  <ref_mols>  (1433) 
mArh-5cms_R_17_R,5CMS_0_H

>  <N_constrained_atoms>  (1433) 
8.0

>  <ref_url>  (1433) 
nan

>  <method>  (1433) 
nan

>  <comRMSD>  (1433) 
nan

>  <N_unconstrained_atoms>  (1433) 
0.0

>  <∆∆G>  (1433) 
-2.872186

>  <runtime>  (1433) 
23.208533

>  <generation_date>  (1433) 
nan

$$$$
mArh-5cb5_R_0_R_γ-5CMS_0_G_γ
     RDKit          3D

 17 19  0  0  0  0  0  0  0  0999 V2000
   -1.3500   12.7340   -3.7210 O   0  0  0  0  0  0  0  0  0  0  0  0
   -0.5630   13.8710   -3.3990 C   0  0  2  0  0  0  0  0  0  0  0  0
   -1.2770   15.0100   -2.6200 C   0  0  2  0  0  0  0  0  0  0  0  0
   -0.0360   14.4900   -4.6970 C   0  0  2  0  0  0  0  0  0  0  0  0
    1.3280   14.1450   -4.8960 O   0  0  0  0  0  0  0  0  0  0  0  0
   -0.7590   16.2360   -3.2130 O   0  0  0  0  0  0  0  0  0  0  0  0
   -0.3510   15.9840   -4.5770 C   0  0  1  0  0  0  0  0  0  0  0  0
   -1.1060   15.1690   -1.0660 C   0  0  1  0  0  0  0  0  0  0  0  0
   -2.8350   14.8980   -2.7310 C   0  0  0  0  0  0  0  0  0  0  0  0
    0.7600   16.9560   -4.9510 C   0  0  0  0  0  0  0  0  0  0  0  0
   -2.5530   15.4860   -0.6060 C   0  0  1  0  0  0  0  0  0  0  0  0
   -3.3830   14.5870   -1.3850 N   0  0  0  0  0  0  0  0  0  0  0  0
   -0.4470   14.1400   -0.2590 N   0  0  0  0  0  0  0  0  0  0  0  0
   -0.4580   14.4680    1.1560 C   0  0  0  0  0  0  0  0  0  0  0  0
   -2.6450   15.5060    0.9400 C   0  0  1  0  0  0  0  0  0  0  0  0
   -3.9990   15.3710    1.4510 N   0  0  0  0  0  0  0  0  0  0  0  0
   -1.8180   14.5600    1.6440 N   0  0  0  0  0  0  0  0  0  0  0  0
  2  1  1  6
  2  3  1  0
  2  4  1  0
  4  5  1  1
  3  6  1  0
  4  7  1  0
  6  7  1  0
  3  8  1  0
  3  9  1  1
  7 10  1  1
  8 11  1  0
  9 12  1  0
 11 12  1  6
  8 13  1  1
 13 14  1  0
 11 15  1  0
 15 16  1  6
 14 17  1  0
 15 17  1  0
M  END
>  <%Rank>  (1434) 
nan

>  <N_hits>  (1434) 
2

>  <submitter_name>  (1434) 
nan

>  <original SMILES>  (1434) 
nan

>  <∆G_unbound>  (1434) 
0.631637

>  <∆G_bound>  (1434) 
-3.948498

>  <regarded>  (1434) 
mArh-5cb5_R_0_R_γ,5CMS_0_G_γ

>  <ref_pdb>  (1434) 
nan

>  <smiles>  (1434) 
CC1OC2(CNC3C(N)NCNC32)C(O)C1O

>  <submitter_email>  (1434) 
nan

>  <disregarded>  (1434) 


>  <LE>  (1434) 
-0.26942

>  <submitter_institution>  (1434) 
nan

>  <ref_mols>  (1434) 
mArh-5cb5_R_0_R,5CMS_0_G

>  <N_constrained_atoms>  (1434) 
17.0

>  <ref_url>  (1434) 
nan

>  <method>  (1434) 
nan

>  <comRMSD>  (1434) 
nan

>  <N_unconstrained_atoms>  (1434) 
0.0

>  <∆∆G>  (1434) 
-4.580134

>  <runtime>  (1434) 
28.297427

>  <generation_date>  (1434) 
nan

$$$$
5CB5_0_M_δ-mArh-2bfq_0_A_γ
     RDKit          3D

 17 19  0  0  0  0  0  0  0  0999 V2000
   -3.8380   15.5530    1.7100 N   0  0  0  0  0  0  0  0  0  0  0  0
   -2.7690   14.9190    0.9530 C   0  0  1  0  0  0  0  0  0  0  0  0
   -2.6290   15.4280   -0.4890 C   0  0  1  0  0  0  0  0  0  0  0  0
   -1.5530   15.2060    1.6750 N   0  0  0  0  0  0  0  0  0  0  0  0
   -1.4140   14.7100   -1.0610 C   0  0  1  0  0  0  0  0  0  0  0  0
   -3.7060   15.1640   -1.4560 N   0  0  0  0  0  0  0  0  0  0  0  0
   -0.3530   14.6330    1.0790 C   0  0  0  0  0  0  0  0  0  0  0  0
   -1.4950   15.0280   -2.5750 C   0  0  1  0  0  0  0  0  0  0  0  0
   -3.0120   15.2820   -2.7660 C   0  0  0  0  0  0  0  0  0  0  0  0
   -0.2360   15.0700   -0.2930 N   0  0  0  0  0  0  0  0  0  0  0  0
   -0.7070   16.2370   -2.8690 O   0  0  0  0  0  0  0  0  0  0  0  0
   -0.9100   13.9850   -3.5610 C   0  0  1  0  0  0  0  0  0  0  0  0
   -1.7880   13.0380   -4.1310 O   0  0  0  0  0  0  0  0  0  0  0  0
   -0.4470   16.2210   -4.2840 C   0  0  2  0  0  0  0  0  0  0  0  0
   -0.1670   14.7650   -4.6490 C   0  0  1  0  0  0  0  0  0  0  0  0
    0.6560   17.1950   -4.6620 C   0  0  0  0  0  0  0  0  0  0  0  0
    1.2080   14.3950   -4.6840 O   0  0  0  0  0  0  0  0  0  0  0  0
  2  1  1  1
  2  3  1  0
  2  4  1  0
  3  5  1  0
  3  6  1  6
  4  7  1  0
  5  8  1  0
  6  9  1  0
  8  9  1  6
  5 10  1  1
  7 10  1  0
  8 11  1  0
  8 12  1  0
 12 13  1  6
 11 14  1  0
 12 15  1  0
 14 15  1  0
 14 16  1  1
 15 17  1  1
M  END
>  <%Rank>  (1435) 
nan

>  <N_hits>  (1435) 
2

>  <submitter_name>  (1435) 
nan

>  <original SMILES>  (1435) 
nan

>  <∆G_unbound>  (1435) 
0.690665

>  <∆G_bound>  (1435) 
-3.221508

>  <regarded>  (1435) 
5CB5_0_M_δ,mArh-2bfq_0_A_γ

>  <ref_pdb>  (1435) 
nan

>  <smiles>  (1435) 
CC1OC2(CNC3C(N)NCNC32)C(O)C1O

>  <submitter_email>  (1435) 
nan

>  <disregarded>  (1435) 


>  <LE>  (1435) 
-0.230128

>  <submitter_institution>  (1435) 
nan

>  <ref_mols>  (1435) 
5CB5_0_M,mArh-2bfq_0_A

>  <N_constrained_atoms>  (1435) 
17.0

>  <ref_url>  (1435) 
nan

>  <method>  (1435) 
nan

>  <comRMSD>  (1435) 
nan

>  <N_unconstrained_atoms>  (1435) 
0.0

>  <∆∆G>  (1435) 
-3.912173

>  <runtime>  (1435) 
29.341865

>  <generation_date>  (1435) 
nan

$$$$
6FX7_0_A_δ-5CB5_0_B_γ
     RDKit          3D

 17 19  0  0  0  0  0  0  0  0999 V2000
   -3.8910   15.5400    1.6560 N   0  0  0  0  0  0  0  0  0  0  0  0
   -2.8330   14.8800    0.9040 C   0  0  1  0  0  0  0  0  0  0  0  0
   -2.7210   15.3350   -0.5640 C   0  0  1  0  0  0  0  0  0  0  0  0
   -1.6110   15.2110    1.5920 N   0  0  0  0  0  0  0  0  0  0  0  0
   -1.5350   14.5860   -1.1790 C   0  0  1  0  0  0  0  0  0  0  0  0
   -3.8280   15.0780   -1.4860 N   0  0  0  0  0  0  0  0  0  0  0  0
   -0.4180   14.6270    0.9810 C   0  0  0  0  0  0  0  0  0  0  0  0
   -1.6740   14.9140   -2.7110 C   0  0  1  0  0  0  0  0  0  0  0  0
   -3.1680   15.3080   -2.7960 C   0  0  0  0  0  0  0  0  0  0  0  0
   -0.3390   14.9650   -0.4330 N   0  0  0  0  0  0  0  0  0  0  0  0
   -0.7930   16.0530   -3.0600 O   0  0  0  0  0  0  0  0  0  0  0  0
   -1.3420   13.8640   -3.8230 C   0  0  2  0  0  0  0  0  0  0  0  0
   -0.7340   12.6420   -3.4770 O   0  0  0  0  0  0  0  0  0  0  0  0
   -0.6400   16.0410   -4.4970 C   0  0  2  0  0  0  0  0  0  0  0  0
   -0.4900   14.5770   -4.8760 C   0  0  1  0  0  0  0  0  0  0  0  0
    0.5060   16.9240   -4.9660 C   0  0  0  0  0  0  0  0  0  0  0  0
    0.8480   14.0830   -4.9000 O   0  0  0  0  0  0  0  0  0  0  0  0
  2  1  1  1
  2  3  1  0
  2  4  1  0
  3  5  1  0
  3  6  1  6
  4  7  1  0
  5  8  1  0
  6  9  1  0
  8  9  1  1
  5 10  1  1
  7 10  1  0
  8 11  1  0
  8 12  1  0
 12 13  1  1
 11 14  1  0
 12 15  1  0
 14 15  1  0
 14 16  1  1
 15 17  1  1
M  END
>  <%Rank>  (1436) 
nan

>  <N_hits>  (1436) 
2

>  <submitter_name>  (1436) 
nan

>  <original SMILES>  (1436) 
nan

>  <∆G_unbound>  (1436) 
0.690665

>  <∆G_bound>  (1436) 
-3.422927

>  <regarded>  (1436) 
6FX7_0_A_δ,5CB5_0_B_γ

>  <ref_pdb>  (1436) 
nan

>  <smiles>  (1436) 
CC1OC2(CNC3C(N)NCNC32)C(O)C1O

>  <submitter_email>  (1436) 
nan

>  <disregarded>  (1436) 


>  <LE>  (1436) 
-0.241976

>  <submitter_institution>  (1436) 
nan

>  <ref_mols>  (1436) 
6FX7_0_A,5CB5_0_B

>  <N_constrained_atoms>  (1436) 
17.0

>  <ref_url>  (1436) 
nan

>  <method>  (1436) 
nan

>  <comRMSD>  (1436) 
nan

>  <N_unconstrained_atoms>  (1436) 
0.0

>  <∆∆G>  (1436) 
-4.113592

>  <runtime>  (1436) 
29.873745

>  <generation_date>  (1436) 
nan

$$$$
6MEA_0_B_α-mArh-5cb5_A_0_A_α
     RDKit          3D

  9  9  0  0  0  0  0  0  0  0999 V2000
   -1.8820   22.1180   -7.9490 C   0  0  0  0  0  0  0  0  0  0  0  0
   -3.3760   22.1870   -8.2280 C   0  0  1  0  0  0  0  0  0  0  0  0
   -4.0580   21.3860   -7.2620 O   0  0  0  0  0  0  0  0  0  0  0  0
   -3.9540   23.5970   -8.1010 C   0  0  1  0  0  0  0  0  0  0  0  0
   -4.2760   24.1640   -9.3530 O   0  0  0  0  0  0  0  0  0  0  0  0
   -5.3550   21.9300   -7.1030 C   0  0  2  0  0  0  0  0  0  0  0  0
   -5.2640   23.4270   -7.3520 C   0  0  1  0  0  0  0  0  0  0  0  0
   -5.7880   21.6580   -5.7750 O   0  0  0  0  0  0  0  0  0  0  0  0
   -5.3780   24.2350   -6.1940 O   0  0  0  0  0  0  0  0  0  0  0  0
  2  1  1  1
  2  3  1  0
  2  4  1  0
  4  5  1  6
  3  6  1  0
  4  7  1  0
  6  7  1  0
  6  8  1  1
  7  9  1  1
M  END
>  <%Rank>  (1437) 
nan

>  <N_hits>  (1437) 
2

>  <submitter_name>  (1437) 
nan

>  <original SMILES>  (1437) 
nan

>  <∆G_unbound>  (1437) 
0.037019

>  <∆G_bound>  (1437) 
-6.837224

>  <regarded>  (1437) 
6MEA_0_B_α,mArh-5cb5_A_0_A_α

>  <ref_pdb>  (1437) 
nan

>  <smiles>  (1437) 
CC1OC(O)C(O)C1O

>  <submitter_email>  (1437) 
nan

>  <disregarded>  (1437) 


>  <LE>  (1437) 
-0.763805

>  <submitter_institution>  (1437) 
nan

>  <ref_mols>  (1437) 
6MEA_0_B,mArh-5cb5_A_0_A

>  <N_constrained_atoms>  (1437) 
9.0

>  <ref_url>  (1437) 
nan

>  <method>  (1437) 
nan

>  <comRMSD>  (1437) 
nan

>  <N_unconstrained_atoms>  (1437) 
0.0

>  <∆∆G>  (1437) 
-6.874243

>  <runtime>  (1437) 
22.310916

>  <generation_date>  (1437) 
nan

$$$$
2BFQ_1_A_δ-5CMS_0_E_γ
     RDKit          3D

 17 19  0  0  0  0  0  0  0  0999 V2000
   -3.8570   15.6960    1.7710 N   0  0  0  0  0  0  0  0  0  0  0  0
   -2.9740   14.8920    0.9440 C   0  0  1  0  0  0  0  0  0  0  0  0
   -2.7010   15.3960   -0.4910 C   0  0  1  0  0  0  0  0  0  0  0  0
   -1.7400   14.7660    1.6990 N   0  0  0  0  0  0  0  0  0  0  0  0
   -1.5990   14.4770   -1.0250 C   0  0  1  0  0  0  0  0  0  0  0  0
   -3.7750   15.2750   -1.4930 N   0  0  0  0  0  0  0  0  0  0  0  0
   -0.5280   15.2330    1.0160 C   0  0  0  0  0  0  0  0  0  0  0  0
   -1.5960   14.6900   -2.5660 C   0  0  1  0  0  0  0  0  0  0  0  0
   -3.0560   15.1680   -2.8000 C   0  0  0  0  0  0  0  0  0  0  0  0
   -0.3670   14.6850   -0.3010 N   0  0  0  0  0  0  0  0  0  0  0  0
   -0.6250   15.7350   -2.9460 O   0  0  0  0  0  0  0  0  0  0  0  0
   -1.0810   13.5120   -3.4690 C   0  0  1  0  0  0  0  0  0  0  0  0
   -1.9580   12.4690   -3.8360 O   0  0  0  0  0  0  0  0  0  0  0  0
   -0.4400   15.6300   -4.3790 C   0  0  2  0  0  0  0  0  0  0  0  0
   -0.4310   14.1390   -4.7100 C   0  0  1  0  0  0  0  0  0  0  0  0
    0.7920   16.3870   -4.8470 C   0  0  0  0  0  0  0  0  0  0  0  0
    0.8610   13.5730   -4.9570 O   0  0  0  0  0  0  0  0  0  0  0  0
  2  1  1  1
  2  3  1  0
  2  4  1  0
  3  5  1  0
  3  6  1  6
  4  7  1  0
  5  8  1  0
  6  9  1  0
  8  9  1  6
  5 10  1  1
  7 10  1  0
  8 11  1  0
  8 12  1  0
 12 13  1  6
 11 14  1  0
 12 15  1  0
 14 15  1  0
 14 16  1  1
 15 17  1  1
M  END
>  <%Rank>  (1438) 
nan

>  <N_hits>  (1438) 
2

>  <submitter_name>  (1438) 
nan

>  <original SMILES>  (1438) 
nan

>  <∆G_unbound>  (1438) 
0.690665

>  <∆G_bound>  (1438) 
-3.153621

>  <regarded>  (1438) 
2BFQ_1_A_δ,5CMS_0_E_γ

>  <ref_pdb>  (1438) 
nan

>  <smiles>  (1438) 
CC1OC2(CNC3C(N)NCNC32)C(O)C1O

>  <submitter_email>  (1438) 
nan

>  <disregarded>  (1438) 


>  <LE>  (1438) 
-0.226134

>  <submitter_institution>  (1438) 
nan

>  <ref_mols>  (1438) 
2BFQ_1_A,5CMS_0_E

>  <N_constrained_atoms>  (1438) 
17.0

>  <ref_url>  (1438) 
nan

>  <method>  (1438) 
nan

>  <comRMSD>  (1438) 
nan

>  <N_unconstrained_atoms>  (1438) 
0.0

>  <∆∆G>  (1438) 
-3.844286

>  <runtime>  (1438) 
30.554735

>  <generation_date>  (1438) 
nan

$$$$
mArh-5l9k_A_0_A_γ-mArh-6woj_C_0_C_γ
     RDKit          3D

  9  9  0  0  0  0  0  0  0  0999 V2000
   -2.2200   12.9240   -4.7780 O   0  0  0  0  0  0  0  0  0  0  0  0
   -1.6040   14.2050   -4.6270 C   0  0  1  0  0  0  0  0  0  0  0  0
   -1.7350   14.7550   -3.2140 C   0  0  0  0  0  0  0  0  0  0  0  0
   -0.0780   14.1170   -4.6960 C   0  0  0  0  0  0  0  0  0  0  0  0
    0.3560   13.1210   -3.8000 O   0  0  0  0  0  0  0  0  0  0  0  0
    0.4880   13.7830   -5.9340 O   0  0  0  0  0  0  0  0  0  0  0  0
   -0.5950   15.6290   -3.0320 O   0  0  0  0  0  0  0  0  0  0  0  0
    0.2220   15.5370   -4.2150 C   0  0  2  0  0  0  0  0  0  0  0  0
   -0.1250   16.6880   -5.1570 C   0  0  0  0  0  0  0  0  0  0  0  0
  2  1  1  1
  2  3  1  0
  2  4  1  0
  4  5  1  0
  4  6  1  0
  3  7  1  0
  4  8  1  0
  7  8  1  0
  8  9  1  6
M  END
>  <%Rank>  (1439) 
nan

>  <N_hits>  (1439) 
2

>  <submitter_name>  (1439) 
nan

>  <original SMILES>  (1439) 
nan

>  <∆G_unbound>  (1439) 
0.008934

>  <∆G_bound>  (1439) 
-2.183236

>  <regarded>  (1439) 
mArh-5l9k_A_0_A_γ,mArh-6woj_C_0_C_γ

>  <ref_pdb>  (1439) 
nan

>  <smiles>  (1439) 
CC1OCC(O)C1(O)O

>  <submitter_email>  (1439) 
nan

>  <disregarded>  (1439) 


>  <LE>  (1439) 
-0.243574

>  <submitter_institution>  (1439) 
nan

>  <ref_mols>  (1439) 
mArh-5l9k_A_0_A,mArh-6woj_C_0_C

>  <N_constrained_atoms>  (1439) 
9.0

>  <ref_url>  (1439) 
nan

>  <method>  (1439) 
nan

>  <comRMSD>  (1439) 
nan

>  <N_unconstrained_atoms>  (1439) 
0.0

>  <∆∆G>  (1439) 
-2.192169

>  <runtime>  (1439) 
24.596826

>  <generation_date>  (1439) 
nan

$$$$
5CB5_0_L_δ-mArh-5cms_C_2_C_γ
     RDKit          3D

 17 19  0  0  0  0  0  0  0  0999 V2000
   -3.6620   15.4540    1.5910 N   0  0  0  0  0  0  0  0  0  0  0  0
   -2.5880   14.8150    0.8520 C   0  0  1  0  0  0  0  0  0  0  0  0
   -2.4790   15.2620   -0.6120 C   0  0  1  0  0  0  0  0  0  0  0  0
   -1.3770   15.1890    1.5300 N   0  0  0  0  0  0  0  0  0  0  0  0
   -1.3470   14.4390   -1.2190 C   0  0  1  0  0  0  0  0  0  0  0  0
   -3.6070   15.0790   -1.5260 N   0  0  0  0  0  0  0  0  0  0  0  0
   -0.1590   14.6480    0.9260 C   0  0  0  0  0  0  0  0  0  0  0  0
   -1.5160   14.7060   -2.7570 C   0  0  1  0  0  0  0  0  0  0  0  0
   -2.9340   15.3190   -2.8220 C   0  0  0  0  0  0  0  0  0  0  0  0
   -0.1200   14.8150   -0.5250 N   0  0  0  0  0  0  0  0  0  0  0  0
   -0.5090   15.6900   -3.1790 O   0  0  0  0  0  0  0  0  0  0  0  0
   -1.3600   13.5690   -3.8170 C   0  0  2  0  0  0  0  0  0  0  0  0
   -0.8190   12.3240   -3.4310 O   0  0  0  0  0  0  0  0  0  0  0  0
   -0.4870   15.6370   -4.6130 C   0  0  2  0  0  0  0  0  0  0  0  0
   -0.5270   14.1550   -4.9620 C   0  0  1  0  0  0  0  0  0  0  0  0
    0.6930   16.4050   -5.1810 C   0  0  0  0  0  0  0  0  0  0  0  0
    0.7430   13.5110   -5.0600 O   0  0  0  0  0  0  0  0  0  0  0  0
  2  1  1  1
  2  3  1  0
  2  4  1  0
  3  5  1  0
  3  6  1  6
  4  7  1  0
  5  8  1  0
  6  9  1  0
  8  9  1  1
  5 10  1  1
  7 10  1  0
  8 11  1  0
  8 12  1  0
 12 13  1  1
 11 14  1  0
 12 15  1  0
 14 15  1  0
 14 16  1  1
 15 17  1  1
M  END
>  <%Rank>  (1440) 
nan

>  <N_hits>  (1440) 
2

>  <submitter_name>  (1440) 
nan

>  <original SMILES>  (1440) 
nan

>  <∆G_unbound>  (1440) 
0.690665

>  <∆G_bound>  (1440) 
-3.368682

>  <regarded>  (1440) 
5CB5_0_L_δ,mArh-5cms_C_2_C_γ

>  <ref_pdb>  (1440) 
nan

>  <smiles>  (1440) 
CC1OC2(CNC3C(N)NCNC32)C(O)C1O

>  <submitter_email>  (1440) 
nan

>  <disregarded>  (1440) 


>  <LE>  (1440) 
-0.238785

>  <submitter_institution>  (1440) 
nan

>  <ref_mols>  (1440) 
5CB5_0_L,mArh-5cms_C_2_C

>  <N_constrained_atoms>  (1440) 
17.0

>  <ref_url>  (1440) 
nan

>  <method>  (1440) 
nan

>  <comRMSD>  (1440) 
nan

>  <N_unconstrained_atoms>  (1440) 
0.0

>  <∆∆G>  (1440) 
-4.059347

>  <runtime>  (1440) 
29.537876

>  <generation_date>  (1440) 
nan

$$$$
mArh-5cb3_0_A_γ-5CB5_0_F_δ
     RDKit          3D

 17 19  0  0  0  0  0  0  0  0999 V2000
   -1.4950   12.6870   -3.7050 O   0  0  0  0  0  0  0  0  0  0  0  0
   -0.5760   13.7340   -3.4210 C   0  0  2  0  0  0  0  0  0  0  0  0
   -1.1330   14.9430   -2.6300 C   0  0  2  0  0  0  0  0  0  0  0  0
   -0.0220   14.2900   -4.7340 C   0  0  2  0  0  0  0  0  0  0  0  0
    1.3410   13.9260   -4.8960 O   0  0  0  0  0  0  0  0  0  0  0  0
   -0.5920   16.1160   -3.2920 O   0  0  0  0  0  0  0  0  0  0  0  0
   -0.3240   15.7940   -4.6720 C   0  0  1  0  0  0  0  0  0  0  0  0
   -0.8330   15.1180   -1.1020 C   0  0  1  0  0  0  0  0  0  0  0  0
   -2.6920   14.9240   -2.6380 C   0  0  0  0  0  0  0  0  0  0  0  0
    0.7480   16.7350   -5.2000 C   0  0  0  0  0  0  0  0  0  0  0  0
   -2.2390   15.4250   -0.5320 C   0  0  1  0  0  0  0  0  0  0  0  0
   -3.1370   14.5590   -1.2750 N   0  0  0  0  0  0  0  0  0  0  0  0
   -0.0890   14.0880   -0.3630 N   0  0  0  0  0  0  0  0  0  0  0  0
   -0.1330   14.2410    1.0870 C   0  0  0  0  0  0  0  0  0  0  0  0
   -2.2030   15.3760    1.0040 C   0  0  1  0  0  0  0  0  0  0  0  0
   -3.5240   15.4000    1.6090 N   0  0  0  0  0  0  0  0  0  0  0  0
   -1.4850   14.2790    1.5510 N   0  0  0  0  0  0  0  0  0  0  0  0
  2  1  1  6
  2  3  1  0
  2  4  1  0
  4  5  1  1
  3  6  1  0
  4  7  1  0
  6  7  1  0
  3  8  1  0
  3  9  1  1
  7 10  1  1
  8 11  1  0
  9 12  1  0
 11 12  1  6
  8 13  1  1
 13 14  1  0
 11 15  1  0
 15 16  1  1
 14 17  1  0
 15 17  1  0
M  END
>  <%Rank>  (1441) 
nan

>  <N_hits>  (1441) 
2

>  <submitter_name>  (1441) 
nan

>  <original SMILES>  (1441) 
nan

>  <∆G_unbound>  (1441) 
0.631637

>  <∆G_bound>  (1441) 
-3.417537

>  <regarded>  (1441) 
mArh-5cb3_0_A_γ,5CB5_0_F_δ

>  <ref_pdb>  (1441) 
nan

>  <smiles>  (1441) 
CC1OC2(CNC3C(N)NCNC32)C(O)C1O

>  <submitter_email>  (1441) 
nan

>  <disregarded>  (1441) 


>  <LE>  (1441) 
-0.238187

>  <submitter_institution>  (1441) 
nan

>  <ref_mols>  (1441) 
mArh-5cb3_0_A,5CB5_0_F

>  <N_constrained_atoms>  (1441) 
17.0

>  <ref_url>  (1441) 
nan

>  <method>  (1441) 
nan

>  <comRMSD>  (1441) 
nan

>  <N_unconstrained_atoms>  (1441) 
0.0

>  <∆∆G>  (1441) 
-4.049173

>  <runtime>  (1441) 
29.335878

>  <generation_date>  (1441) 
nan

$$$$
5CMS_0_B_α-mArh-5cms_C_2_C_α
     RDKit          3D

  9  9  0  0  0  0  0  0  0  0999 V2000
   -3.3120   21.9310   -9.4180 C   0  0  0  0  0  0  0  0  0  0  0  0
   -4.3500   22.7700  -10.1590 C   0  0  1  0  0  0  0  0  0  0  0  0
   -4.0010   24.1560  -10.0060 O   0  0  0  0  0  0  0  0  0  0  0  0
   -4.4600   22.5030  -11.6740 C   0  0  1  0  0  0  0  0  0  0  0  0
   -5.5930   21.7550  -12.0520 O   0  0  0  0  0  0  0  0  0  0  0  0
   -4.3800   24.8550  -11.1970 C   0  0  2  0  0  0  0  0  0  0  0  0
   -4.6810   23.8640  -12.2980 C   0  0  1  0  0  0  0  0  0  0  0  0
   -3.2980   25.6470  -11.6750 O   0  0  0  0  0  0  0  0  0  0  0  0
   -3.9040   24.0590  -13.4790 O   0  0  0  0  0  0  0  0  0  0  0  0
  2  1  1  6
  2  3  1  0
  2  4  1  0
  4  5  1  1
  3  6  1  0
  4  7  1  0
  6  7  1  0
  6  8  1  6
  7  9  1  6
M  END
>  <%Rank>  (1442) 
nan

>  <N_hits>  (1442) 
2

>  <submitter_name>  (1442) 
nan

>  <original SMILES>  (1442) 
nan

>  <∆G_unbound>  (1442) 
0.037019

>  <∆G_bound>  (1442) 
-1.358444

>  <regarded>  (1442) 
5CMS_0_B_α,mArh-5cms_C_2_C_α

>  <ref_pdb>  (1442) 
nan

>  <smiles>  (1442) 
CC1OC(O)C(O)C1O

>  <submitter_email>  (1442) 
nan

>  <disregarded>  (1442) 


>  <LE>  (1442) 
-0.155051

>  <submitter_institution>  (1442) 
nan

>  <ref_mols>  (1442) 
5CMS_0_B,mArh-5cms_C_2_C

>  <N_constrained_atoms>  (1442) 
9.0

>  <ref_url>  (1442) 
nan

>  <method>  (1442) 
nan

>  <comRMSD>  (1442) 
nan

>  <N_unconstrained_atoms>  (1442) 
0.0

>  <∆∆G>  (1442) 
-1.395463

>  <runtime>  (1442) 
32.194165

>  <generation_date>  (1442) 
nan

$$$$
mArh-5cb5_A_0_A_α-5CB5_0_C_α
     RDKit          3D

  9  9  0  0  0  0  0  0  0  0999 V2000
   -1.9980   21.9180   -8.2750 C   0  0  0  0  0  0  0  0  0  0  0  0
   -3.4560   22.0760   -8.6850 C   0  0  1  0  0  0  0  0  0  0  0  0
   -4.2200   21.3270   -7.7510 O   0  0  0  0  0  0  0  0  0  0  0  0
   -3.9950   23.5030   -8.6040 C   0  0  1  0  0  0  0  0  0  0  0  0
   -4.2450   24.0870   -9.8700 O   0  0  0  0  0  0  0  0  0  0  0  0
   -5.5010   21.9230   -7.6080 C   0  0  2  0  0  0  0  0  0  0  0  0
   -5.3490   23.4010   -7.8890 C   0  0  1  0  0  0  0  0  0  0  0  0
   -5.9130   21.7220   -6.2550 O   0  0  0  0  0  0  0  0  0  0  0  0
   -5.4560   24.1930   -6.7100 O   0  0  0  0  0  0  0  0  0  0  0  0
  2  1  1  1
  2  3  1  0
  2  4  1  0
  4  5  1  6
  3  6  1  0
  4  7  1  0
  6  7  1  0
  6  8  1  1
  7  9  1  1
M  END
>  <%Rank>  (1443) 
nan

>  <N_hits>  (1443) 
2

>  <submitter_name>  (1443) 
nan

>  <original SMILES>  (1443) 
nan

>  <∆G_unbound>  (1443) 
0.037019

>  <∆G_bound>  (1443) 
-6.356662

>  <regarded>  (1443) 
mArh-5cb5_A_0_A_α,5CB5_0_C_α

>  <ref_pdb>  (1443) 
nan

>  <smiles>  (1443) 
CC1OC(O)C(O)C1O

>  <submitter_email>  (1443) 
nan

>  <disregarded>  (1443) 


>  <LE>  (1443) 
-0.710409

>  <submitter_institution>  (1443) 
nan

>  <ref_mols>  (1443) 
mArh-5cb5_A_0_A,5CB5_0_C

>  <N_constrained_atoms>  (1443) 
9.0

>  <ref_url>  (1443) 
nan

>  <method>  (1443) 
nan

>  <comRMSD>  (1443) 
nan

>  <N_unconstrained_atoms>  (1443) 
0.0

>  <∆∆G>  (1443) 
-6.393681

>  <runtime>  (1443) 
25.621248

>  <generation_date>  (1443) 
nan

$$$$
mArh-5cb5_E_0_E_γ-mArh-5cms_Q_16_Q_γ
     RDKit          3D

  8  8  0  0  0  0  0  0  0  0999 V2000
   -0.7000   12.3740   -4.0630 O   0  0  0  0  0  0  0  0  0  0  0  0
   -1.0670   13.7410   -4.2520 C   0  0  1  0  0  0  0  0  0  0  0  0
   -0.9440   14.5490   -2.9690 C   0  0  0  0  0  0  0  0  0  0  0  0
   -0.0380   14.4090   -5.1290 C   0  0  2  0  0  0  0  0  0  0  0  0
    1.2460   13.8680   -4.8900 O   0  0  0  0  0  0  0  0  0  0  0  0
   -0.3080   15.8060   -3.3100 O   0  0  0  0  0  0  0  0  0  0  0  0
   -0.2690   15.8670   -4.7390 C   0  0  1  0  0  0  0  0  0  0  0  0
    0.7300   16.9180   -5.2090 C   0  0  0  0  0  0  0  0  0  0  0  0
  2  1  1  1
  2  3  1  0
  2  4  1  0
  4  5  1  1
  3  6  1  0
  4  7  1  0
  6  7  1  0
  7  8  1  1
M  END
>  <%Rank>  (1444) 
nan

>  <N_hits>  (1444) 
2

>  <submitter_name>  (1444) 
nan

>  <original SMILES>  (1444) 
nan

>  <∆G_unbound>  (1444) 
0.021216

>  <∆G_bound>  (1444) 
-2.747842

>  <regarded>  (1444) 
mArh-5cb5_E_0_E_γ,mArh-5cms_Q_16_Q_γ

>  <ref_pdb>  (1444) 
nan

>  <smiles>  (1444) 
CC1OCC(O)C1O

>  <submitter_email>  (1444) 
nan

>  <disregarded>  (1444) 


>  <LE>  (1444) 
-0.346132

>  <submitter_institution>  (1444) 
nan

>  <ref_mols>  (1444) 
mArh-5cb5_E_0_E,mArh-5cms_Q_16_Q

>  <N_constrained_atoms>  (1444) 
8.0

>  <ref_url>  (1444) 
nan

>  <method>  (1444) 
nan

>  <comRMSD>  (1444) 
nan

>  <N_unconstrained_atoms>  (1444) 
0.0

>  <∆∆G>  (1444) 
-2.769058

>  <runtime>  (1444) 
22.603588

>  <generation_date>  (1444) 
nan

$$$$
5CB5_0_K_α-5CB5_0_C_α
     RDKit          3D

  9  9  0  0  0  0  0  0  0  0999 V2000
   -1.9350   22.0140   -8.1910 C   0  0  0  0  0  0  0  0  0  0  0  0
   -3.3660   22.1760   -8.6780 C   0  0  1  0  0  0  0  0  0  0  0  0
   -4.1650   21.2820   -7.9260 O   0  0  0  0  0  0  0  0  0  0  0  0
   -3.9430   23.5750   -8.4750 C   0  0  1  0  0  0  0  0  0  0  0  0
   -4.2680   24.1870   -9.7090 O   0  0  0  0  0  0  0  0  0  0  0  0
   -5.3630   21.9040   -7.4760 C   0  0  2  0  0  0  0  0  0  0  0  0
   -5.2490   23.3960   -7.7040 C   0  0  1  0  0  0  0  0  0  0  0  0
   -5.5070   21.6100   -6.0830 O   0  0  0  0  0  0  0  0  0  0  0  0
   -5.3510   24.1620   -6.5040 O   0  0  0  0  0  0  0  0  0  0  0  0
  2  1  1  1
  2  3  1  0
  2  4  1  0
  4  5  1  6
  3  6  1  0
  4  7  1  0
  6  7  1  0
  6  8  1  1
  7  9  1  1
M  END
>  <%Rank>  (1445) 
nan

>  <N_hits>  (1445) 
2

>  <submitter_name>  (1445) 
nan

>  <original SMILES>  (1445) 
nan

>  <∆G_unbound>  (1445) 
0.037019

>  <∆G_bound>  (1445) 
-6.466783

>  <regarded>  (1445) 
5CB5_0_K_α,5CB5_0_C_α

>  <ref_pdb>  (1445) 
nan

>  <smiles>  (1445) 
CC1OC(O)C(O)C1O

>  <submitter_email>  (1445) 
nan

>  <disregarded>  (1445) 


>  <LE>  (1445) 
-0.722645

>  <submitter_institution>  (1445) 
nan

>  <ref_mols>  (1445) 
5CB5_0_K,5CB5_0_C

>  <N_constrained_atoms>  (1445) 
9.0

>  <ref_url>  (1445) 
nan

>  <method>  (1445) 
nan

>  <comRMSD>  (1445) 
nan

>  <N_unconstrained_atoms>  (1445) 
0.0

>  <∆∆G>  (1445) 
-6.503802

>  <runtime>  (1445) 
24.546269

>  <generation_date>  (1445) 
nan

$$$$
5CB5_0_D_γ-5LW0_0_A_γ
     RDKit          3D

  9  9  0  0  0  0  0  0  0  0999 V2000
   -0.5530   12.4000   -4.6370 O   0  0  0  0  0  0  0  0  0  0  0  0
    0.0300   13.6120   -4.1910 C   0  0  2  0  0  0  0  0  0  0  0  0
   -0.8280   14.4610   -3.3120 C   0  0  1  0  0  0  0  0  0  0  0  0
    0.2130   14.5770   -5.2950 C   0  0  2  0  0  0  0  0  0  0  0  0
    1.2000   14.0240   -6.1100 O   0  0  0  0  0  0  0  0  0  0  0  0
   -0.8570   13.8300   -2.0610 O   0  0  0  0  0  0  0  0  0  0  0  0
   -0.1650   15.7460   -3.2900 O   0  0  0  0  0  0  0  0  0  0  0  0
    0.5900   15.8450   -4.5240 C   0  0  2  0  0  0  0  0  0  0  0  0
    0.2660   17.1440   -5.2620 C   0  0  0  0  0  0  0  0  0  0  0  0
  2  1  1  6
  2  3  1  0
  2  4  1  0
  4  5  1  6
  3  6  1  1
  3  7  1  0
  4  8  1  0
  7  8  1  0
  8  9  1  6
M  END
>  <%Rank>  (1446) 
nan

>  <N_hits>  (1446) 
2

>  <submitter_name>  (1446) 
nan

>  <original SMILES>  (1446) 
nan

>  <∆G_unbound>  (1446) 
0.027418

>  <∆G_bound>  (1446) 
-1.943793

>  <regarded>  (1446) 
5CB5_0_D_γ,5LW0_0_A_γ

>  <ref_pdb>  (1446) 
nan

>  <smiles>  (1446) 
CC1OC(O)C(O)C1O

>  <submitter_email>  (1446) 
nan

>  <disregarded>  (1446) 


>  <LE>  (1446) 
-0.219023

>  <submitter_institution>  (1446) 
nan

>  <ref_mols>  (1446) 
5CB5_0_D,5LW0_0_A

>  <N_constrained_atoms>  (1446) 
9.0

>  <ref_url>  (1446) 
nan

>  <method>  (1446) 
nan

>  <comRMSD>  (1446) 
nan

>  <N_unconstrained_atoms>  (1446) 
0.0

>  <∆∆G>  (1446) 
-1.971211

>  <runtime>  (1446) 
25.189251

>  <generation_date>  (1446) 
nan

$$$$
6MEA_0_A_δ-mArh-5cms_J_9_J_γ
     RDKit          3D

 17 19  0  0  0  0  0  0  0  0999 V2000
   -3.7280   15.2680    1.7040 N   0  0  0  0  0  0  0  0  0  0  0  0
   -2.6900   14.4690    1.0860 C   0  0  1  0  0  0  0  0  0  0  0  0
   -2.6090   14.6420   -0.4410 C   0  0  1  0  0  0  0  0  0  0  0  0
   -1.4880   14.9830    1.6950 N   0  0  0  0  0  0  0  0  0  0  0  0
   -1.3030   14.0540   -0.9910 C   0  0  1  0  0  0  0  0  0  0  0  0
   -3.6220   14.1570   -1.3590 N   0  0  0  0  0  0  0  0  0  0  0  0
   -0.2630   14.3930    1.1860 C   0  0  0  0  0  0  0  0  0  0  0  0
   -1.4700   14.3220   -2.5360 C   0  0  1  0  0  0  0  0  0  0  0  0
   -2.9880   14.6760   -2.6060 C   0  0  0  0  0  0  0  0  0  0  0  0
   -0.1650   14.5900   -0.2500 N   0  0  0  0  0  0  0  0  0  0  0  0
   -0.5910   15.4360   -2.9680 O   0  0  0  0  0  0  0  0  0  0  0  0
   -1.0850   13.2150   -3.5550 C   0  0  1  0  0  0  0  0  0  0  0  0
   -2.1000   12.3550   -4.0270 O   0  0  0  0  0  0  0  0  0  0  0  0
   -0.4910   15.3730   -4.4070 C   0  0  2  0  0  0  0  0  0  0  0  0
   -0.3770   13.8910   -4.7390 C   0  0  1  0  0  0  0  0  0  0  0  0
    0.6430   16.2340   -4.9530 C   0  0  0  0  0  0  0  0  0  0  0  0
    0.9500   13.3940   -4.8750 O   0  0  0  0  0  0  0  0  0  0  0  0
  2  1  1  1
  2  3  1  0
  2  4  1  0
  3  5  1  0
  3  6  1  6
  4  7  1  0
  5  8  1  0
  6  9  1  0
  8  9  1  1
  5 10  1  1
  7 10  1  0
  8 11  1  0
  8 12  1  0
 12 13  1  6
 11 14  1  0
 12 15  1  0
 14 15  1  0
 14 16  1  1
 15 17  1  1
M  END
>  <%Rank>  (1447) 
nan

>  <N_hits>  (1447) 
2

>  <submitter_name>  (1447) 
nan

>  <original SMILES>  (1447) 
nan

>  <∆G_unbound>  (1447) 
0.690665

>  <∆G_bound>  (1447) 
-3.348714

>  <regarded>  (1447) 
6MEA_0_A_δ,mArh-5cms_J_9_J_γ

>  <ref_pdb>  (1447) 
nan

>  <smiles>  (1447) 
CC1OC2(CNC3C(N)NCNC32)C(O)C1O

>  <submitter_email>  (1447) 
nan

>  <disregarded>  (1447) 


>  <LE>  (1447) 
-0.237611

>  <submitter_institution>  (1447) 
nan

>  <ref_mols>  (1447) 
6MEA_0_A,mArh-5cms_J_9_J

>  <N_constrained_atoms>  (1447) 
17.0

>  <ref_url>  (1447) 
nan

>  <method>  (1447) 
nan

>  <comRMSD>  (1447) 
nan

>  <N_unconstrained_atoms>  (1447) 
0.0

>  <∆∆G>  (1447) 
-4.039379

>  <runtime>  (1447) 
30.11795

>  <generation_date>  (1447) 
nan

$$$$
5CMS_0_F_γ-4IQY_0_B_δ
     RDKit          3D

 17 19  0  0  0  0  0  0  0  0999 V2000
   -1.4160   12.5540   -3.5720 O   0  0  0  0  0  0  0  0  0  0  0  0
   -0.6090   13.7040   -3.3540 C   0  0  2  0  0  0  0  0  0  0  0  0
   -1.2700   14.9050   -2.6220 C   0  0  2  0  0  0  0  0  0  0  0  0
   -0.1550   14.2360   -4.7200 C   0  0  2  0  0  0  0  0  0  0  0  0
    1.1820   13.8420   -5.0020 O   0  0  0  0  0  0  0  0  0  0  0  0
   -0.6710   16.0610   -3.2670 O   0  0  0  0  0  0  0  0  0  0  0  0
   -0.4190   15.7450   -4.6510 C   0  0  1  0  0  0  0  0  0  0  0  0
   -1.1330   15.1580   -1.0740 C   0  0  1  0  0  0  0  0  0  0  0  0
   -2.8280   14.8690   -2.7630 C   0  0  0  0  0  0  0  0  0  0  0  0
    0.6710   16.6700   -5.1650 C   0  0  0  0  0  0  0  0  0  0  0  0
   -2.5880   15.4850   -0.6390 C   0  0  1  0  0  0  0  0  0  0  0  0
   -3.4070   14.5820   -1.4280 N   0  0  0  0  0  0  0  0  0  0  0  0
   -0.4640   14.2000   -0.1980 N   0  0  0  0  0  0  0  0  0  0  0  0
   -0.4770   14.6880    1.1600 C   0  0  0  0  0  0  0  0  0  0  0  0
   -2.7520   15.5290    0.9000 C   0  0  1  0  0  0  0  0  0  0  0  0
   -4.0910   15.2220    1.3680 N   0  0  0  0  0  0  0  0  0  0  0  0
   -1.8320   14.7220    1.6620 N   0  0  0  0  0  0  0  0  0  0  0  0
  2  1  1  6
  2  3  1  0
  2  4  1  0
  4  5  1  1
  3  6  1  0
  4  7  1  0
  6  7  1  0
  3  8  1  0
  3  9  1  1
  7 10  1  1
  8 11  1  0
  9 12  1  0
 11 12  1  1
  8 13  1  1
 13 14  1  0
 11 15  1  0
 15 16  1  6
 14 17  1  0
 15 17  1  0
M  END
>  <%Rank>  (1448) 
nan

>  <N_hits>  (1448) 
2

>  <submitter_name>  (1448) 
nan

>  <original SMILES>  (1448) 
nan

>  <∆G_unbound>  (1448) 
0.631637

>  <∆G_bound>  (1448) 
-3.606987

>  <regarded>  (1448) 
5CMS_0_F_γ,4IQY_0_B_δ

>  <ref_pdb>  (1448) 
nan

>  <smiles>  (1448) 
CC1OC2(CNC3C(N)NCNC32)C(O)C1O

>  <submitter_email>  (1448) 
nan

>  <disregarded>  (1448) 


>  <LE>  (1448) 
-0.249331

>  <submitter_institution>  (1448) 
nan

>  <ref_mols>  (1448) 
5CMS_0_F,4IQY_0_B

>  <N_constrained_atoms>  (1448) 
17.0

>  <ref_url>  (1448) 
nan

>  <method>  (1448) 
nan

>  <comRMSD>  (1448) 
nan

>  <N_unconstrained_atoms>  (1448) 
0.0

>  <∆∆G>  (1448) 
-4.238623

>  <runtime>  (1448) 
28.632308

>  <generation_date>  (1448) 
nan

$$$$
mArh-5cms_A_0_A_γ-5CB5_0_M_γ
     RDKit          3D

  8  8  0  0  0  0  0  0  0  0999 V2000
   -0.4790   11.9830   -4.0060 O   0  0  0  0  0  0  0  0  0  0  0  0
   -0.8940   13.3300   -4.2230 C   0  0  1  0  0  0  0  0  0  0  0  0
   -0.7410   14.1800   -2.9640 C   0  0  0  0  0  0  0  0  0  0  0  0
    0.0570   14.0140   -5.1780 C   0  0  2  0  0  0  0  0  0  0  0  0
    1.3810   13.5260   -5.0110 O   0  0  0  0  0  0  0  0  0  0  0  0
   -0.2310   15.4700   -3.3700 O   0  0  0  0  0  0  0  0  0  0  0  0
   -0.2170   15.4720   -4.8050 C   0  0  1  0  0  0  0  0  0  0  0  0
    0.7300   16.5390   -5.3230 C   0  0  0  0  0  0  0  0  0  0  0  0
  2  1  1  1
  2  3  1  0
  2  4  1  0
  4  5  1  1
  3  6  1  0
  4  7  1  0
  6  7  1  0
  7  8  1  1
M  END
>  <%Rank>  (1449) 
nan

>  <N_hits>  (1449) 
2

>  <submitter_name>  (1449) 
nan

>  <original SMILES>  (1449) 
nan

>  <∆G_unbound>  (1449) 
0.021216

>  <∆G_bound>  (1449) 
-2.944042

>  <regarded>  (1449) 
mArh-5cms_A_0_A_γ,5CB5_0_M_γ

>  <ref_pdb>  (1449) 
nan

>  <smiles>  (1449) 
CC1OCC(O)C1O

>  <submitter_email>  (1449) 
nan

>  <disregarded>  (1449) 


>  <LE>  (1449) 
-0.370657

>  <submitter_institution>  (1449) 
nan

>  <ref_mols>  (1449) 
mArh-5cms_A_0_A,5CB5_0_M

>  <N_constrained_atoms>  (1449) 
8.0

>  <ref_url>  (1449) 
nan

>  <method>  (1449) 
nan

>  <comRMSD>  (1449) 
nan

>  <N_unconstrained_atoms>  (1449) 
0.0

>  <∆∆G>  (1449) 
-2.965259

>  <runtime>  (1449) 
21.601914

>  <generation_date>  (1449) 
nan

$$$$
6WOJ_0_A_γ-5L9K_0_B_γ
     RDKit          3D

  9  9  0  0  0  0  0  0  0  0999 V2000
   -0.9340   12.5620   -5.1220 O   0  0  0  0  0  0  0  0  0  0  0  0
    0.0370   13.1650   -4.2740 C   0  0  2  0  0  0  0  0  0  0  0  0
   -0.5910   14.0410   -3.2060 C   0  0  2  0  0  0  0  0  0  0  0  0
    0.9700   14.0760   -5.0530 C   0  0  2  0  0  0  0  0  0  0  0  0
    2.2230   13.4180   -5.1160 O   0  0  0  0  0  0  0  0  0  0  0  0
   -2.0000   13.9920   -3.3980 O   0  0  0  0  0  0  0  0  0  0  0  0
   -0.0990   15.3800   -3.3440 O   0  0  0  0  0  0  0  0  0  0  0  0
    1.0010   15.3940   -4.2690 C   0  0  2  0  0  0  0  0  0  0  0  0
    0.8660   16.6360   -5.1410 C   0  0  0  0  0  0  0  0  0  0  0  0
  2  1  1  6
  2  3  1  0
  2  4  1  0
  4  5  1  1
  3  6  1  6
  3  7  1  0
  4  8  1  0
  7  8  1  0
  8  9  1  6
M  END
>  <%Rank>  (1450) 
nan

>  <N_hits>  (1450) 
2

>  <submitter_name>  (1450) 
nan

>  <original SMILES>  (1450) 
nan

>  <∆G_unbound>  (1450) 
0.027418

>  <∆G_bound>  (1450) 
-3.112706

>  <regarded>  (1450) 
6WOJ_0_A_γ,5L9K_0_B_γ

>  <ref_pdb>  (1450) 
nan

>  <smiles>  (1450) 
CC1OC(O)C(O)C1O

>  <submitter_email>  (1450) 
nan

>  <disregarded>  (1450) 


>  <LE>  (1450) 
-0.348903

>  <submitter_institution>  (1450) 
nan

>  <ref_mols>  (1450) 
6WOJ_0_A,5L9K_0_B

>  <N_constrained_atoms>  (1450) 
9.0

>  <ref_url>  (1450) 
nan

>  <method>  (1450) 
nan

>  <comRMSD>  (1450) 
nan

>  <N_unconstrained_atoms>  (1450) 
0.0

>  <∆∆G>  (1450) 
-3.140125

>  <runtime>  (1450) 
24.969598

>  <generation_date>  (1450) 
nan

$$$$
3Q6Z_0_A_γ-mArh-5cb5_H_0_H_γ
     RDKit          3D

  8  8  0  0  0  0  0  0  0  0999 V2000
   -0.7720   12.2030   -4.2830 O   0  0  0  0  0  0  0  0  0  0  0  0
   -0.9660   13.6160   -4.3400 C   0  0  1  0  0  0  0  0  0  0  0  0
   -1.1270   14.2380   -2.9530 C   0  0  0  0  0  0  0  0  0  0  0  0
    0.3000   14.3000   -4.8020 C   0  0  2  0  0  0  0  0  0  0  0  0
    1.4400   13.6810   -4.2090 O   0  0  0  0  0  0  0  0  0  0  0  0
   -0.4390   15.5080   -2.9830 O   0  0  0  0  0  0  0  0  0  0  0  0
   -0.0550   15.7060   -4.3440 C   0  0  1  0  0  0  0  0  0  0  0  0
    0.9940   16.7800   -4.4590 C   0  0  0  0  0  0  0  0  0  0  0  0
  2  1  1  1
  2  3  1  0
  2  4  1  0
  4  5  1  1
  3  6  1  0
  4  7  1  0
  6  7  1  0
  7  8  1  1
M  END
>  <%Rank>  (1451) 
nan

>  <N_hits>  (1451) 
2

>  <submitter_name>  (1451) 
nan

>  <original SMILES>  (1451) 
nan

>  <∆G_unbound>  (1451) 
0.021216

>  <∆G_bound>  (1451) 
-2.905726

>  <regarded>  (1451) 
3Q6Z_0_A_γ,mArh-5cb5_H_0_H_γ

>  <ref_pdb>  (1451) 
nan

>  <smiles>  (1451) 
CC1OCC(O)C1O

>  <submitter_email>  (1451) 
nan

>  <disregarded>  (1451) 


>  <LE>  (1451) 
-0.365868

>  <submitter_institution>  (1451) 
nan

>  <ref_mols>  (1451) 
3Q6Z_0_A,mArh-5cb5_H_0_H

>  <N_constrained_atoms>  (1451) 
8.0

>  <ref_url>  (1451) 
nan

>  <method>  (1451) 
nan

>  <comRMSD>  (1451) 
nan

>  <N_unconstrained_atoms>  (1451) 
0.0

>  <∆∆G>  (1451) 
-2.926943

>  <runtime>  (1451) 
22.494489

>  <generation_date>  (1451) 
nan

$$$$
5CB5_0_F_δ-3VFQ_0_A_δ
     RDKit          3D

 19 22  0  0  0  0  0  0  0  0999 V2000
   -1.9240   15.5870    1.0900 N   0  0  0  0  0  0  0  0  0  0  0  0
   -1.7800   15.5240   -0.3350 C   0  0  2  0  0  0  0  0  0  0  0  0
   -2.2930   14.2160   -0.9080 C   0  0  2  0  0  0  0  0  0  0  0  0
   -0.3480   15.5750   -0.5060 N   0  0  0  0  0  0  0  0  0  0  0  0
   -1.8970   14.1390   -2.3460 C   0  0  2  0  0  0  0  0  0  0  0  0
   -3.7920   13.9380   -1.0750 C   0  0  1  0  0  0  0  0  0  0  0  0
    0.0810   15.4410   -1.8920 C   0  0  0  0  0  0  0  0  0  0  0  0
   -2.4550   12.8810   -2.8000 N   0  0  0  0  0  0  0  0  0  0  0  0
   -3.6300   12.6390   -1.9250 C   0  0  0  0  0  0  0  0  0  0  0  0
   -0.4860   14.2790   -2.5510 N   0  0  0  0  0  0  0  0  0  0  0  0
   -4.5060   13.7120    0.2880 C   0  0  2  0  0  0  0  0  0  0  0  0
   -4.7690   14.8870   -1.8050 C   0  0  0  0  0  0  0  0  0  0  0  0
   -5.7110   14.6410    0.1530 C   0  0  1  0  0  0  0  0  0  0  0  0
   -6.0880   14.5040   -1.2410 N   0  0  0  0  0  0  0  0  0  0  0  0
   -3.8770   14.0760    1.5530 N   0  0  0  0  0  0  0  0  0  0  0  0
   -4.5040   15.2900    2.0970 C   0  0  0  0  0  0  0  0  0  0  0  0
   -6.5590   14.3330    1.3950 C   0  0  2  0  0  0  0  0  0  0  0  0
   -7.9340   14.7960    1.3750 N   0  0  0  0  0  0  0  0  0  0  0  0
   -5.8900   15.0350    2.4560 N   0  0  0  0  0  0  0  0  0  0  0  0
  2  1  1  1
  3  2  1  6
  2  4  1  0
  3  5  1  0
  3  6  1  0
  4  7  1  0
  5  8  1  1
  6  9  1  6
  8  9  1  0
  5 10  1  0
  7 10  1  0
  6 11  1  0
  6 12  1  0
 11 13  1  0
 12 14  1  0
 13 14  1  6
 11 15  1  1
 15 16  1  0
 13 17  1  0
 17 18  1  6
 16 19  1  0
 17 19  1  0
M  END
>  <%Rank>  (1452) 
nan

>  <N_hits>  (1452) 
2

>  <submitter_name>  (1452) 
nan

>  <original SMILES>  (1452) 
nan

>  <∆G_unbound>  (1452) 
1.243114

>  <∆G_bound>  (1452) 
0.005142

>  <regarded>  (1452) 
5CB5_0_F_δ,3VFQ_0_A_δ

>  <ref_pdb>  (1452) 
nan

>  <smiles>  (1452) 
NC1NCNC2C1NCC21CNC2NCNC(N)C21

>  <submitter_email>  (1452) 
nan

>  <disregarded>  (1452) 


>  <LE>  (1452) 
-0.065156

>  <submitter_institution>  (1452) 
nan

>  <ref_mols>  (1452) 
5CB5_0_F,3VFQ_0_A

>  <N_constrained_atoms>  (1452) 
19.0

>  <ref_url>  (1452) 
nan

>  <method>  (1452) 
nan

>  <comRMSD>  (1452) 
nan

>  <N_unconstrained_atoms>  (1452) 
0.0

>  <∆∆G>  (1452) 
-1.237972

>  <runtime>  (1452) 
52.559433

>  <generation_date>  (1452) 
nan

$$$$
6MEA_0_B_γ-5CMS_0_E_γ
     RDKit          3D

  8  8  0  0  0  0  0  0  0  0999 V2000
   -0.9730   12.3930   -4.2670 O   0  0  0  0  0  0  0  0  0  0  0  0
   -1.0650   13.8090   -4.1950 C   0  0  1  0  0  0  0  0  0  0  0  0
   -0.6410   14.3700   -2.8390 C   0  0  0  0  0  0  0  0  0  0  0  0
   -0.0170   14.4140   -5.0810 C   0  0  2  0  0  0  0  0  0  0  0  0
    1.2090   13.6960   -4.9810 O   0  0  0  0  0  0  0  0  0  0  0  0
    0.0630   15.6100   -3.1090 O   0  0  0  0  0  0  0  0  0  0  0  0
   -0.0730   15.8300   -4.5240 C   0  0  1  0  0  0  0  0  0  0  0  0
    0.9050   16.8650   -5.0350 C   0  0  0  0  0  0  0  0  0  0  0  0
  2  1  1  1
  2  3  1  0
  2  4  1  0
  4  5  1  1
  3  6  1  0
  4  7  1  0
  6  7  1  0
  7  8  1  6
M  END
>  <%Rank>  (1453) 
nan

>  <N_hits>  (1453) 
2

>  <submitter_name>  (1453) 
nan

>  <original SMILES>  (1453) 
nan

>  <∆G_unbound>  (1453) 
0.021216

>  <∆G_bound>  (1453) 
-2.690156

>  <regarded>  (1453) 
6MEA_0_B_γ,5CMS_0_E_γ

>  <ref_pdb>  (1453) 
nan

>  <smiles>  (1453) 
CC1OCC(O)C1O

>  <submitter_email>  (1453) 
nan

>  <disregarded>  (1453) 


>  <LE>  (1453) 
-0.338922

>  <submitter_institution>  (1453) 
nan

>  <ref_mols>  (1453) 
6MEA_0_B,5CMS_0_E

>  <N_constrained_atoms>  (1453) 
8.0

>  <ref_url>  (1453) 
nan

>  <method>  (1453) 
nan

>  <comRMSD>  (1453) 
nan

>  <N_unconstrained_atoms>  (1453) 
0.0

>  <∆∆G>  (1453) 
-2.711373

>  <runtime>  (1453) 
21.933365

>  <generation_date>  (1453) 
nan

$$$$
5CB5_0_H_δ-mArh-x0910_0_A_α
     RDKit          3D

 11 12  0  0  0  0  0  0  0  0999 V2000
   -3.9800   15.6410    1.8890 N   0  0  0  0  0  0  0  0  0  0  0  0
   -2.9900   14.7450    1.3150 C   0  0  1  0  0  0  0  0  0  0  0  0
   -3.2950   14.4720   -0.1610 C   0  0  2  0  0  0  0  0  0  0  0  0
   -1.7050   15.3400    1.6130 N   0  0  0  0  0  0  0  0  0  0  0  0
   -2.0240   14.2190   -0.9420 C   0  0  1  0  0  0  0  0  0  0  0  0
   -3.9770   15.5440   -0.9050 N   0  0  0  0  0  0  0  0  0  0  0  0
   -0.5780   14.7740    0.8910 C   0  0  0  0  0  0  0  0  0  0  0  0
   -2.3510   14.6180   -2.3180 N   0  0  0  0  0  0  0  0  0  0  0  0
   -3.6600   15.2260   -2.2840 C   0  0  0  0  0  0  0  0  0  0  0  0
   -0.8450   14.9480   -0.5320 N   0  0  0  0  0  0  0  0  0  0  0  0
    0.2220   14.4630   -1.3940 N   0  0  0  0  0  0  0  0  0  0  0  0
  2  1  1  6
  2  3  1  0
  2  4  1  0
  3  5  1  0
  3  6  1  6
  4  7  1  0
  5  8  1  6
  6  9  1  0
  8  9  1  0
  5 10  1  0
  7 10  1  0
 10 11  1  0
M  END
>  <%Rank>  (1454) 
nan

>  <N_hits>  (1454) 
2

>  <submitter_name>  (1454) 
nan

>  <original SMILES>  (1454) 
nan

>  <∆G_unbound>  (1454) 
0.59476

>  <∆G_bound>  (1454) 
-1.980612

>  <regarded>  (1454) 
5CB5_0_H_δ,mArh-x0910_0_A_α

>  <ref_pdb>  (1454) 
nan

>  <smiles>  (1454) 
NC1NCN(N)C2NCNC12

>  <submitter_email>  (1454) 
nan

>  <disregarded>  (1454) 


>  <LE>  (1454) 
-0.234125

>  <submitter_institution>  (1454) 
nan

>  <ref_mols>  (1454) 
5CB5_0_H,mArh-x0910_0_A

>  <N_constrained_atoms>  (1454) 
11.0

>  <ref_url>  (1454) 
nan

>  <method>  (1454) 
nan

>  <comRMSD>  (1454) 
nan

>  <N_unconstrained_atoms>  (1454) 
0.0

>  <∆∆G>  (1454) 
-2.575372

>  <runtime>  (1454) 
26.612959

>  <generation_date>  (1454) 
nan

$$$$
mArh-5cb5_Q_0_Q_γ-6WOJ_0_A_δ
     RDKit          3D

 17 19  0  0  0  0  0  0  0  0999 V2000
   -1.1390   12.8090   -3.9070 O   0  0  0  0  0  0  0  0  0  0  0  0
   -0.3930   13.9870   -3.6280 C   0  0  2  0  0  0  0  0  0  0  0  0
   -1.1010   15.0910   -2.8240 C   0  0  2  0  0  0  0  0  0  0  0  0
    0.0300   14.6480   -4.9400 C   0  0  2  0  0  0  0  0  0  0  0  0
    1.3780   14.3310   -5.2480 O   0  0  0  0  0  0  0  0  0  0  0  0
   -0.4340   16.3030   -3.2880 O   0  0  0  0  0  0  0  0  0  0  0  0
   -0.2880   16.1350   -4.7200 C   0  0  1  0  0  0  0  0  0  0  0  0
   -1.1320   15.0450   -1.2490 C   0  0  1  0  0  0  0  0  0  0  0  0
   -2.6190   15.1700   -3.1610 C   0  0  0  0  0  0  0  0  0  0  0  0
    0.7100   17.1370   -5.2850 C   0  0  0  0  0  0  0  0  0  0  0  0
   -2.5810   14.7020   -0.9010 C   0  0  2  0  0  0  0  0  0  0  0  0
   -3.4020   15.3610   -1.9190 N   0  0  0  0  0  0  0  0  0  0  0  0
   -0.2690   14.1470   -0.4590 N   0  0  0  0  0  0  0  0  0  0  0  0
   -0.4340   14.3210    0.9960 C   0  0  0  0  0  0  0  0  0  0  0  0
   -2.7280   15.1220    0.5780 C   0  0  1  0  0  0  0  0  0  0  0  0
   -4.0800   14.9710    1.0860 N   0  0  0  0  0  0  0  0  0  0  0  0
   -1.8310   14.3710    1.4340 N   0  0  0  0  0  0  0  0  0  0  0  0
  2  1  1  6
  2  3  1  0
  2  4  1  0
  4  5  1  1
  3  6  1  0
  4  7  1  0
  6  7  1  0
  3  8  1  0
  3  9  1  6
  7 10  1  1
  8 11  1  0
  9 12  1  0
 11 12  1  6
  8 13  1  6
 13 14  1  0
 11 15  1  0
 15 16  1  1
 14 17  1  0
 15 17  1  0
M  END
>  <%Rank>  (1455) 
nan

>  <N_hits>  (1455) 
2

>  <submitter_name>  (1455) 
nan

>  <original SMILES>  (1455) 
nan

>  <∆G_unbound>  (1455) 
0.631637

>  <∆G_bound>  (1455) 
-3.644249

>  <regarded>  (1455) 
mArh-5cb5_Q_0_Q_γ,6WOJ_0_A_δ

>  <ref_pdb>  (1455) 
nan

>  <smiles>  (1455) 
CC1OC2(CNC3C(N)NCNC32)C(O)C1O

>  <submitter_email>  (1455) 
nan

>  <disregarded>  (1455) 


>  <LE>  (1455) 
-0.251523

>  <submitter_institution>  (1455) 
nan

>  <ref_mols>  (1455) 
mArh-5cb5_Q_0_Q,6WOJ_0_A

>  <N_constrained_atoms>  (1455) 
17.0

>  <ref_url>  (1455) 
nan

>  <method>  (1455) 
nan

>  <comRMSD>  (1455) 
nan

>  <N_unconstrained_atoms>  (1455) 
0.0

>  <∆∆G>  (1455) 
-4.275885

>  <runtime>  (1455) 
26.861428

>  <generation_date>  (1455) 
nan

$$$$
2FAV_0_B_α-5CB5_0_Q_δ
     RDKit          3D

 23 25  0  0  0  0  0  0  0  0999 V2000
   -1.2340   22.2390   -7.8780 C   0  0  0  0  0  0  0  0  0  0  0  0
   -2.7030   22.0350   -8.2130 C   0  0  1  0  0  0  0  0  0  0  0  0
   -3.1700   20.9810   -7.2920 N   0  0  0  0  0  0  0  0  0  0  0  0
   -3.5300   23.3130   -7.9320 C   0  0  1  0  0  0  0  0  0  0  0  0
   -4.1010   23.7680   -9.1740 O   0  0  0  0  0  0  0  0  0  0  0  0
   -1.9930   20.2040   -6.7900 C   0  0  0  0  0  0  0  0  0  0  0  0
   -4.0060   21.6580   -6.2650 C   0  0  0  0  0  0  0  0  0  0  0  0
   -4.6560   22.8320   -7.0130 C   0  0  1  0  0  0  0  0  0  0  0  0
   -5.1850   23.8790   -6.2030 O   0  0  0  0  0  0  0  0  0  0  0  0
   -2.3440   18.9170   -6.0260 C   0  0  0  0  0  0  0  0  0  0  0  0
   -1.2860   17.8290   -5.7320 C   0  0  0  0  0  0  0  0  0  0  0  0
   -1.9000   16.5110   -5.1630 C   0  0  0  0  0  0  0  0  0  0  0  0
   -1.7940   16.3620   -3.6300 C   0  0  0  0  0  0  0  0  0  0  0  0
   -2.4160   15.1260   -2.9210 C   0  0  1  0  0  0  0  0  0  0  0  0
   -1.3610   14.3460   -2.3360 N   0  0  0  0  0  0  0  0  0  0  0  0
   -3.2810   15.4390   -1.7530 N   0  0  0  0  0  0  0  0  0  0  0  0
   -0.9900   15.1180   -1.1680 C   0  0  1  0  0  0  0  0  0  0  0  0
   -2.3220   15.6130   -0.6220 C   0  0  2  0  0  0  0  0  0  0  0  0
   -0.2180   14.2790   -0.3040 N   0  0  0  0  0  0  0  0  0  0  0  0
   -2.6160   14.8470    0.6910 C   0  0  2  0  0  0  0  0  0  0  0  0
   -3.7620   15.3520    1.4340 N   0  0  0  0  0  0  0  0  0  0  0  0
   -0.2330   14.6180    1.1040 C   0  0  0  0  0  0  0  0  0  0  0  0
   -1.5240   15.0900    1.5930 N   0  0  0  0  0  0  0  0  0  0  0  0
  2  1  1  1
  2  3  1  0
  2  4  1  0
  4  5  1  6
  3  6  1  0
  3  7  1  0
  4  8  1  0
  7  8  1  0
  8  9  1  1
  6 10  1  0
 10 11  1  0
 11 12  1  0
 12 13  1  0
 14 13  1  1
 14 15  1  0
 14 16  1  0
 17 15  1  6
 18 16  1  6
 17 18  1  0
 17 19  1  0
 18 20  1  0
 20 21  1  1
 19 22  1  0
 20 23  1  0
 22 23  1  0
M  END
>  <%Rank>  (1456) 
nan

>  <N_hits>  (1456) 
2

>  <submitter_name>  (1456) 
nan

>  <original SMILES>  (1456) 
nan

>  <∆G_unbound>  (1456) 
0.832526

>  <∆G_bound>  (1456) 
-10.780842

>  <regarded>  (1456) 
2FAV_0_B_α,5CB5_0_Q_δ

>  <ref_pdb>  (1456) 
nan

>  <smiles>  (1456) 
CC1C(O)C(O)CN1CCCCCC1NC2NCNC(N)C2N1

>  <submitter_email>  (1456) 
nan

>  <disregarded>  (1456) 


>  <LE>  (1456) 
-0.504929

>  <submitter_institution>  (1456) 
nan

>  <ref_mols>  (1456) 
2FAV_0_B,5CB5_0_Q

>  <N_constrained_atoms>  (1456) 
18.0

>  <ref_url>  (1456) 
nan

>  <method>  (1456) 
nan

>  <comRMSD>  (1456) 
nan

>  <N_unconstrained_atoms>  (1456) 
5.0

>  <∆∆G>  (1456) 
-11.613368

>  <runtime>  (1456) 
35.708316

>  <generation_date>  (1456) 
nan

$$$$
mArh-5lw0_B_1_B_γ-4IQY_0_A_γ
     RDKit          3D

  8  8  0  0  0  0  0  0  0  0999 V2000
   -0.4230   11.9820   -3.6390 O   0  0  0  0  0  0  0  0  0  0  0  0
   -0.7790   13.3380   -3.8980 C   0  0  1  0  0  0  0  0  0  0  0  0
   -0.7010   14.2040   -2.6420 C   0  0  0  0  0  0  0  0  0  0  0  0
    0.2660   13.9900   -4.7710 C   0  0  2  0  0  0  0  0  0  0  0  0
    1.5660   13.5300   -4.4180 O   0  0  0  0  0  0  0  0  0  0  0  0
   -0.1510   15.4850   -3.0380 O   0  0  0  0  0  0  0  0  0  0  0  0
   -0.0730   15.4470   -4.4690 C   0  0  1  0  0  0  0  0  0  0  0  0
    0.8410   16.5310   -5.0070 C   0  0  0  0  0  0  0  0  0  0  0  0
  2  1  1  1
  2  3  1  0
  2  4  1  0
  4  5  1  1
  3  6  1  0
  4  7  1  0
  6  7  1  0
  7  8  1  1
M  END
>  <%Rank>  (1457) 
nan

>  <N_hits>  (1457) 
2

>  <submitter_name>  (1457) 
nan

>  <original SMILES>  (1457) 
nan

>  <∆G_unbound>  (1457) 
0.021216

>  <∆G_bound>  (1457) 
-2.846044

>  <regarded>  (1457) 
mArh-5lw0_B_1_B_γ,4IQY_0_A_γ

>  <ref_pdb>  (1457) 
nan

>  <smiles>  (1457) 
CC1OCC(O)C1O

>  <submitter_email>  (1457) 
nan

>  <disregarded>  (1457) 


>  <LE>  (1457) 
-0.358408

>  <submitter_institution>  (1457) 
nan

>  <ref_mols>  (1457) 
mArh-5lw0_B_1_B,4IQY_0_A

>  <N_constrained_atoms>  (1457) 
8.0

>  <ref_url>  (1457) 
nan

>  <method>  (1457) 
nan

>  <comRMSD>  (1457) 
nan

>  <N_unconstrained_atoms>  (1457) 
0.0

>  <∆∆G>  (1457) 
-2.867261

>  <runtime>  (1457) 
21.46421

>  <generation_date>  (1457) 
nan

$$$$
mArh-5cb5_D_0_D_γ-5CMS_0_I_γ
     RDKit          3D

  9  9  0  0  0  0  0  0  0  0999 V2000
    0.2200   12.4480   -4.4350 O   0  0  0  0  0  0  0  0  0  0  0  0
   -0.3450   13.7210   -4.7290 C   0  0  1  0  0  0  0  0  0  0  0  0
   -0.8950   14.4140   -3.5060 C   0  0  2  0  0  0  0  0  0  0  0  0
    0.7230   14.6560   -5.2130 C   0  0  2  0  0  0  0  0  0  0  0  0
    1.9720   14.0620   -4.9650 O   0  0  0  0  0  0  0  0  0  0  0  0
   -2.2740   14.1100   -3.4780 O   0  0  0  0  0  0  0  0  0  0  0  0
   -0.6790   15.8170   -3.6890 O   0  0  0  0  0  0  0  0  0  0  0  0
    0.5090   15.9770   -4.4750 C   0  0  2  0  0  0  0  0  0  0  0  0
    0.3730   17.1840   -5.3950 C   0  0  0  0  0  0  0  0  0  0  0  0
  2  1  1  1
  2  3  1  0
  2  4  1  0
  4  5  1  1
  3  6  1  6
  3  7  1  0
  4  8  1  0
  7  8  1  0
  8  9  1  6
M  END
>  <%Rank>  (1458) 
nan

>  <N_hits>  (1458) 
2

>  <submitter_name>  (1458) 
nan

>  <original SMILES>  (1458) 
nan

>  <∆G_unbound>  (1458) 
0.027418

>  <∆G_bound>  (1458) 
-2.750957

>  <regarded>  (1458) 
mArh-5cb5_D_0_D_γ,5CMS_0_I_γ

>  <ref_pdb>  (1458) 
nan

>  <smiles>  (1458) 
CC1OC(O)C(O)C1O

>  <submitter_email>  (1458) 
nan

>  <disregarded>  (1458) 


>  <LE>  (1458) 
-0.308708

>  <submitter_institution>  (1458) 
nan

>  <ref_mols>  (1458) 
mArh-5cb5_D_0_D,5CMS_0_I

>  <N_constrained_atoms>  (1458) 
9.0

>  <ref_url>  (1458) 
nan

>  <method>  (1458) 
nan

>  <comRMSD>  (1458) 
nan

>  <N_unconstrained_atoms>  (1458) 
0.0

>  <∆∆G>  (1458) 
-2.778376

>  <runtime>  (1458) 
26.346044

>  <generation_date>  (1458) 
nan

$$$$
6WOJ_0_D_δ-5CMS_0_P_γ
     RDKit          3D

 17 19  0  0  0  0  0  0  0  0999 V2000
   -3.8290   15.2740    1.5010 N   0  0  0  0  0  0  0  0  0  0  0  0
   -2.7430   14.5650    0.8530 C   0  0  1  0  0  0  0  0  0  0  0  0
   -2.5070   14.9730   -0.6110 C   0  0  1  0  0  0  0  0  0  0  0  0
   -1.5810   14.9060    1.6330 N   0  0  0  0  0  0  0  0  0  0  0  0
   -1.3140   14.1620   -1.1050 C   0  0  1  0  0  0  0  0  0  0  0  0
   -3.5520   14.7220   -1.6080 N   0  0  0  0  0  0  0  0  0  0  0  0
   -0.3540   14.2790    1.1550 C   0  0  0  0  0  0  0  0  0  0  0  0
   -1.3410   14.4550   -2.6530 C   0  0  1  0  0  0  0  0  0  0  0  0
   -2.8000   14.9310   -2.8670 C   0  0  0  0  0  0  0  0  0  0  0  0
   -0.1540   14.4820   -0.2800 N   0  0  0  0  0  0  0  0  0  0  0  0
   -0.4070   15.5380   -3.0150 O   0  0  0  0  0  0  0  0  0  0  0  0
   -0.9240   13.3430   -3.6540 C   0  0  1  0  0  0  0  0  0  0  0  0
   -1.9060   12.4330   -4.1110 O   0  0  0  0  0  0  0  0  0  0  0  0
   -0.3640   15.5250   -4.4550 C   0  0  2  0  0  0  0  0  0  0  0  0
   -0.2520   14.0520   -4.8380 C   0  0  1  0  0  0  0  0  0  0  0  0
    0.7280   16.4250   -5.0130 C   0  0  0  0  0  0  0  0  0  0  0  0
    1.0720   13.5620   -5.0060 O   0  0  0  0  0  0  0  0  0  0  0  0
  2  1  1  1
  2  3  1  0
  2  4  1  0
  3  5  1  0
  3  6  1  6
  4  7  1  0
  5  8  1  0
  6  9  1  0
  8  9  1  6
  5 10  1  1
  7 10  1  0
  8 11  1  0
  8 12  1  0
 12 13  1  6
 11 14  1  0
 12 15  1  0
 14 15  1  0
 14 16  1  1
 15 17  1  1
M  END
>  <%Rank>  (1459) 
nan

>  <N_hits>  (1459) 
2

>  <submitter_name>  (1459) 
nan

>  <original SMILES>  (1459) 
nan

>  <∆G_unbound>  (1459) 
0.690665

>  <∆G_bound>  (1459) 
-3.369391

>  <regarded>  (1459) 
6WOJ_0_D_δ,5CMS_0_P_γ

>  <ref_pdb>  (1459) 
nan

>  <smiles>  (1459) 
CC1OC2(CNC3C(N)NCNC32)C(O)C1O

>  <submitter_email>  (1459) 
nan

>  <disregarded>  (1459) 


>  <LE>  (1459) 
-0.238827

>  <submitter_institution>  (1459) 
nan

>  <ref_mols>  (1459) 
6WOJ_0_D,5CMS_0_P

>  <N_constrained_atoms>  (1459) 
17.0

>  <ref_url>  (1459) 
nan

>  <method>  (1459) 
nan

>  <comRMSD>  (1459) 
nan

>  <N_unconstrained_atoms>  (1459) 
0.0

>  <∆∆G>  (1459) 
-4.060056

>  <runtime>  (1459) 
29.411825

>  <generation_date>  (1459) 
nan

$$$$
5CB5_0_A_γ-5CMS_0_B_δ
     RDKit          3D

 17 19  0  0  0  0  0  0  0  0999 V2000
   -1.5520   12.8220   -3.7980 O   0  0  0  0  0  0  0  0  0  0  0  0
   -0.6940   13.8890   -3.4150 C   0  0  2  0  0  0  0  0  0  0  0  0
   -1.3370   15.0390   -2.6020 C   0  0  2  0  0  0  0  0  0  0  0  0
   -0.1040   14.5310   -4.6800 C   0  0  2  0  0  0  0  0  0  0  0  0
    1.2930   14.3050   -4.7600 O   0  0  0  0  0  0  0  0  0  0  0  0
   -0.7820   16.2490   -3.1900 O   0  0  0  0  0  0  0  0  0  0  0  0
   -0.5380   15.9910   -4.5880 C   0  0  1  0  0  0  0  0  0  0  0  0
   -1.1640   15.1660   -1.0420 C   0  0  1  0  0  0  0  0  0  0  0  0
   -2.8950   15.0030   -2.7290 C   0  0  0  0  0  0  0  0  0  0  0  0
    0.4410   17.0300   -5.1360 C   0  0  0  0  0  0  0  0  0  0  0  0
   -2.5950   15.5440   -0.5960 C   0  0  1  0  0  0  0  0  0  0  0  0
   -3.4660   14.7020   -1.3940 N   0  0  0  0  0  0  0  0  0  0  0  0
   -0.5750   14.0920   -0.2260 N   0  0  0  0  0  0  0  0  0  0  0  0
   -0.5780   14.4290    1.1880 C   0  0  0  0  0  0  0  0  0  0  0  0
   -2.6950   15.5710    0.9470 C   0  0  1  0  0  0  0  0  0  0  0  0
   -4.0490   15.5790    1.4800 N   0  0  0  0  0  0  0  0  0  0  0  0
   -1.9370   14.5760    1.6590 N   0  0  0  0  0  0  0  0  0  0  0  0
  2  1  1  6
  2  3  1  0
  2  4  1  0
  4  5  1  1
  3  6  1  0
  4  7  1  0
  6  7  1  0
  3  8  1  0
  3  9  1  1
  7 10  1  1
  8 11  1  0
  9 12  1  0
 11 12  1  1
  8 13  1  1
 13 14  1  0
 11 15  1  0
 15 16  1  6
 14 17  1  0
 15 17  1  0
M  END
>  <%Rank>  (1460) 
nan

>  <N_hits>  (1460) 
2

>  <submitter_name>  (1460) 
nan

>  <original SMILES>  (1460) 
nan

>  <∆G_unbound>  (1460) 
0.631637

>  <∆G_bound>  (1460) 
-3.816206

>  <regarded>  (1460) 
5CB5_0_A_γ,5CMS_0_B_δ

>  <ref_pdb>  (1460) 
nan

>  <smiles>  (1460) 
CC1OC2(CNC3C(N)NCNC32)C(O)C1O

>  <submitter_email>  (1460) 
nan

>  <disregarded>  (1460) 


>  <LE>  (1460) 
-0.261638

>  <submitter_institution>  (1460) 
nan

>  <ref_mols>  (1460) 
5CB5_0_A,5CMS_0_B

>  <N_constrained_atoms>  (1460) 
17.0

>  <ref_url>  (1460) 
nan

>  <method>  (1460) 
nan

>  <comRMSD>  (1460) 
nan

>  <N_unconstrained_atoms>  (1460) 
0.0

>  <∆∆G>  (1460) 
-4.447843

>  <runtime>  (1460) 
30.20323

>  <generation_date>  (1460) 
nan

$$$$
5CB5_0_E_γ-mArh-6woj_C_0_C_γ
     RDKit          3D

  8  8  0  0  0  0  0  0  0  0999 V2000
   -0.7330   12.3580   -4.0920 O   0  0  0  0  0  0  0  0  0  0  0  0
   -1.0890   13.7280   -4.2810 C   0  0  1  0  0  0  0  0  0  0  0  0
   -0.9750   14.5290   -2.9880 C   0  0  0  0  0  0  0  0  0  0  0  0
   -0.0470   14.4000   -5.1390 C   0  0  2  0  0  0  0  0  0  0  0  0
    1.2380   13.8480   -4.8900 O   0  0  0  0  0  0  0  0  0  0  0  0
   -0.3450   15.7910   -3.3200 O   0  0  0  0  0  0  0  0  0  0  0  0
   -0.2790   15.8550   -4.7490 C   0  0  1  0  0  0  0  0  0  0  0  0
    0.7230   16.9080   -5.2020 C   0  0  0  0  0  0  0  0  0  0  0  0
  2  1  1  1
  2  3  1  0
  2  4  1  0
  4  5  1  1
  3  6  1  0
  4  7  1  0
  6  7  1  0
  7  8  1  1
M  END
>  <%Rank>  (1461) 
nan

>  <N_hits>  (1461) 
2

>  <submitter_name>  (1461) 
nan

>  <original SMILES>  (1461) 
nan

>  <∆G_unbound>  (1461) 
0.021216

>  <∆G_bound>  (1461) 
-2.729494

>  <regarded>  (1461) 
5CB5_0_E_γ,mArh-6woj_C_0_C_γ

>  <ref_pdb>  (1461) 
nan

>  <smiles>  (1461) 
CC1OCC(O)C1O

>  <submitter_email>  (1461) 
nan

>  <disregarded>  (1461) 


>  <LE>  (1461) 
-0.343839

>  <submitter_institution>  (1461) 
nan

>  <ref_mols>  (1461) 
5CB5_0_E,mArh-6woj_C_0_C

>  <N_constrained_atoms>  (1461) 
8.0

>  <ref_url>  (1461) 
nan

>  <method>  (1461) 
nan

>  <comRMSD>  (1461) 
nan

>  <N_unconstrained_atoms>  (1461) 
0.0

>  <∆∆G>  (1461) 
-2.750711

>  <runtime>  (1461) 
22.460906

>  <generation_date>  (1461) 
nan

$$$$
5CB5_0_F_δ-5CB5_0_O_γ
     RDKit          3D

 17 19  0  0  0  0  0  0  0  0999 V2000
   -3.5740   15.2930    1.6070 N   0  0  0  0  0  0  0  0  0  0  0  0
   -2.4580   14.6920    0.8990 C   0  0  1  0  0  0  0  0  0  0  0  0
   -2.3570   15.1220   -0.5750 C   0  0  1  0  0  0  0  0  0  0  0  0
   -1.3010   15.1500    1.6040 N   0  0  0  0  0  0  0  0  0  0  0  0
   -1.0750   14.5180   -1.1380 C   0  0  1  0  0  0  0  0  0  0  0  0
   -3.3890   14.6850   -1.5180 N   0  0  0  0  0  0  0  0  0  0  0  0
   -0.0410   14.7090    1.0260 C   0  0  0  0  0  0  0  0  0  0  0  0
   -1.2070   14.8000   -2.6720 C   0  0  1  0  0  0  0  0  0  0  0  0
   -2.7390   14.9860   -2.8200 C   0  0  0  0  0  0  0  0  0  0  0  0
    0.0410   15.0420   -0.3830 N   0  0  0  0  0  0  0  0  0  0  0  0
   -0.4800   16.0380   -3.0280 O   0  0  0  0  0  0  0  0  0  0  0  0
   -0.6030   13.7820   -3.6740 C   0  0  1  0  0  0  0  0  0  0  0  0
   -1.4100   12.7160   -4.1310 O   0  0  0  0  0  0  0  0  0  0  0  0
   -0.3370   16.0330   -4.4640 C   0  0  2  0  0  0  0  0  0  0  0  0
   -0.0580   14.5820   -4.8590 C   0  0  1  0  0  0  0  0  0  0  0  0
    0.7060   17.0250   -4.9520 C   0  0  0  0  0  0  0  0  0  0  0  0
    1.3110   14.2660   -5.0880 O   0  0  0  0  0  0  0  0  0  0  0  0
  2  1  1  1
  2  3  1  0
  2  4  1  0
  3  5  1  0
  3  6  1  6
  4  7  1  0
  5  8  1  0
  6  9  1  0
  8  9  1  6
  5 10  1  1
  7 10  1  0
  8 11  1  0
  8 12  1  0
 12 13  1  6
 11 14  1  0
 12 15  1  0
 14 15  1  0
 14 16  1  1
 15 17  1  1
M  END
>  <%Rank>  (1462) 
nan

>  <N_hits>  (1462) 
2

>  <submitter_name>  (1462) 
nan

>  <original SMILES>  (1462) 
nan

>  <∆G_unbound>  (1462) 
0.690665

>  <∆G_bound>  (1462) 
-3.023942

>  <regarded>  (1462) 
5CB5_0_F_δ,5CB5_0_O_γ

>  <ref_pdb>  (1462) 
nan

>  <smiles>  (1462) 
CC1OC2(CNC3C(N)NCNC32)C(O)C1O

>  <submitter_email>  (1462) 
nan

>  <disregarded>  (1462) 


>  <LE>  (1462) 
-0.218506

>  <submitter_institution>  (1462) 
nan

>  <ref_mols>  (1462) 
5CB5_0_F,5CB5_0_O

>  <N_constrained_atoms>  (1462) 
17.0

>  <ref_url>  (1462) 
nan

>  <method>  (1462) 
nan

>  <comRMSD>  (1462) 
nan

>  <N_unconstrained_atoms>  (1462) 
0.0

>  <∆∆G>  (1462) 
-3.714606

>  <runtime>  (1462) 
30.313685

>  <generation_date>  (1462) 
nan

$$$$
5CMS_0_N_δ-5CMS_0_D_γ
     RDKit          3D

 10 11  0  0  0  0  0  0  0  0999 V2000
   -3.7810   14.9980    1.1850 N   0  0  0  0  0  0  0  0  0  0  0  0
   -2.5340   15.3510    0.5450 C   0  0  2  0  0  0  0  0  0  0  0  0
   -2.3790   14.7700   -0.8620 C   0  0  2  0  0  0  0  0  0  0  0  0
   -1.4840   14.8700    1.4130 N   0  0  0  0  0  0  0  0  0  0  0  0
   -1.0070   15.2300   -1.3030 C   0  0  2  0  0  0  0  0  0  0  0  0
   -3.2120   15.2360   -1.9690 N   0  0  0  0  0  0  0  0  0  0  0  0
   -0.1680   15.1810    0.8850 C   0  0  0  0  0  0  0  0  0  0  0  0
   -0.9850   14.7480   -2.6550 N   0  0  0  0  0  0  0  0  0  0  0  0
   -2.3250   15.0900   -3.1330 C   0  0  0  0  0  0  0  0  0  0  0  0
    0.0290   14.6950   -0.4710 N   0  0  0  0  0  0  0  0  0  0  0  0
  2  1  1  1
  2  3  1  0
  2  4  1  0
  3  5  1  0
  3  6  1  6
  4  7  1  0
  5  8  1  6
  6  9  1  0
  8  9  1  0
  5 10  1  0
  7 10  1  0
M  END
>  <%Rank>  (1463) 
nan

>  <N_hits>  (1463) 
2

>  <submitter_name>  (1463) 
nan

>  <original SMILES>  (1463) 
nan

>  <∆G_unbound>  (1463) 
0.213408

>  <∆G_bound>  (1463) 
-1.217508

>  <regarded>  (1463) 
5CMS_0_N_δ,5CMS_0_D_γ

>  <ref_pdb>  (1463) 
nan

>  <smiles>  (1463) 
NC1NCNC2NCNC12

>  <submitter_email>  (1463) 
nan

>  <disregarded>  (1463) 


>  <LE>  (1463) 
-0.143092

>  <submitter_institution>  (1463) 
nan

>  <ref_mols>  (1463) 
5CMS_0_N,5CMS_0_D

>  <N_constrained_atoms>  (1463) 
10.0

>  <ref_url>  (1463) 
nan

>  <method>  (1463) 
nan

>  <comRMSD>  (1463) 
nan

>  <N_unconstrained_atoms>  (1463) 
0.0

>  <∆∆G>  (1463) 
-1.430916

>  <runtime>  (1463) 
25.921719

>  <generation_date>  (1463) 
nan

$$$$
5L9K_0_B_γ-5CB5_0_D_δ
     RDKit          3D

 17 19  0  0  0  0  0  0  0  0999 V2000
   -2.2200   12.7440   -3.7270 O   0  0  0  0  0  0  0  0  0  0  0  0
   -1.2450   13.7490   -3.4680 C   0  0  2  0  0  0  0  0  0  0  0  0
   -1.7510   15.0010   -2.7380 C   0  0  2  0  0  0  0  0  0  0  0  0
   -0.6510   14.2390   -4.7840 C   0  0  2  0  0  0  0  0  0  0  0  0
    0.6990   13.8250   -4.8870 O   0  0  0  0  0  0  0  0  0  0  0  0
   -1.2360   16.1500   -3.4550 O   0  0  0  0  0  0  0  0  0  0  0  0
   -0.8930   15.7550   -4.7940 C   0  0  1  0  0  0  0  0  0  0  0  0
   -1.4200   15.2510   -1.2280 C   0  0  1  0  0  0  0  0  0  0  0  0
   -3.3000   14.9840   -2.7340 C   0  0  0  0  0  0  0  0  0  0  0  0
    0.2600   16.6320   -5.2710 C   0  0  0  0  0  0  0  0  0  0  0  0
   -2.8310   15.5010   -0.6550 C   0  0  1  0  0  0  0  0  0  0  0  0
   -3.6970   14.5860   -1.3770 N   0  0  0  0  0  0  0  0  0  0  0  0
   -0.6020   14.3290   -0.4400 N   0  0  0  0  0  0  0  0  0  0  0  0
   -0.5410   14.7280    0.9580 C   0  0  0  0  0  0  0  0  0  0  0  0
   -2.8380   15.5200    0.8890 C   0  0  1  0  0  0  0  0  0  0  0  0
   -4.1510   15.2100    1.4180 N   0  0  0  0  0  0  0  0  0  0  0  0
   -1.8630   14.6850    1.5440 N   0  0  0  0  0  0  0  0  0  0  0  0
  2  1  1  6
  2  3  1  0
  2  4  1  0
  4  5  1  1
  3  6  1  0
  4  7  1  0
  6  7  1  0
  3  8  1  0
  3  9  1  1
  7 10  1  1
  8 11  1  0
  9 12  1  0
 11 12  1  1
  8 13  1  1
 13 14  1  0
 11 15  1  0
 15 16  1  1
 14 17  1  0
 15 17  1  0
M  END
>  <%Rank>  (1464) 
nan

>  <N_hits>  (1464) 
2

>  <submitter_name>  (1464) 
nan

>  <original SMILES>  (1464) 
nan

>  <∆G_unbound>  (1464) 
0.631637

>  <∆G_bound>  (1464) 
-3.693053

>  <regarded>  (1464) 
5L9K_0_B_γ,5CB5_0_D_δ

>  <ref_pdb>  (1464) 
nan

>  <smiles>  (1464) 
CC1OC2(CNC3C(N)NCNC32)C(O)C1O

>  <submitter_email>  (1464) 
nan

>  <disregarded>  (1464) 


>  <LE>  (1464) 
-0.254393

>  <submitter_institution>  (1464) 
nan

>  <ref_mols>  (1464) 
5L9K_0_B,5CB5_0_D

>  <N_constrained_atoms>  (1464) 
17.0

>  <ref_url>  (1464) 
nan

>  <method>  (1464) 
nan

>  <comRMSD>  (1464) 
nan

>  <N_unconstrained_atoms>  (1464) 
0.0

>  <∆∆G>  (1464) 
-4.324689

>  <runtime>  (1464) 
35.801633

>  <generation_date>  (1464) 
nan

$$$$
3Q6Z_0_A_γ-5CMS_0_G_γ
     RDKit          3D

 17 19  0  0  0  0  0  0  0  0999 V2000
   -1.5200   12.6680   -3.9140 O   0  0  0  0  0  0  0  0  0  0  0  0
   -0.6950   13.6350   -3.2810 C   0  0  2  0  0  0  0  0  0  0  0  0
   -1.4030   14.8220   -2.5650 C   0  0  2  0  0  0  0  0  0  0  0  0
    0.2450   14.2440   -4.3170 C   0  0  2  0  0  0  0  0  0  0  0  0
    1.6000   14.0370   -3.9540 O   0  0  0  0  0  0  0  0  0  0  0  0
   -0.9200   16.0280   -3.2090 O   0  0  0  0  0  0  0  0  0  0  0  0
   -0.2250   15.6970   -4.4290 C   0  0  1  0  0  0  0  0  0  0  0  0
   -1.1960   15.0740   -1.0390 C   0  0  1  0  0  0  0  0  0  0  0  0
   -2.9610   14.7140   -2.6510 C   0  0  0  0  0  0  0  0  0  0  0  0
    0.8540   16.7410   -4.6650 C   0  0  0  0  0  0  0  0  0  0  0  0
   -2.6250   15.4300   -0.5630 C   0  0  1  0  0  0  0  0  0  0  0  0
   -3.4910   14.5100   -1.2820 N   0  0  0  0  0  0  0  0  0  0  0  0
   -0.5110   14.0860   -0.2010 N   0  0  0  0  0  0  0  0  0  0  0  0
   -0.4850   14.4840    1.1900 C   0  0  0  0  0  0  0  0  0  0  0  0
   -2.6730   15.5130    0.9740 C   0  0  1  0  0  0  0  0  0  0  0  0
   -4.0140   15.4390    1.5290 N   0  0  0  0  0  0  0  0  0  0  0  0
   -1.8370   14.5840    1.6920 N   0  0  0  0  0  0  0  0  0  0  0  0
  2  1  1  6
  2  3  1  0
  2  4  1  0
  4  5  1  1
  3  6  1  0
  4  7  1  0
  6  7  1  0
  3  8  1  0
  3  9  1  1
  7 10  1  1
  8 11  1  0
  9 12  1  0
 11 12  1  1
  8 13  1  1
 13 14  1  0
 11 15  1  0
 15 16  1  1
 14 17  1  0
 15 17  1  0
M  END
>  <%Rank>  (1465) 
nan

>  <N_hits>  (1465) 
2

>  <submitter_name>  (1465) 
nan

>  <original SMILES>  (1465) 
nan

>  <∆G_unbound>  (1465) 
0.631637

>  <∆G_bound>  (1465) 
-3.620241

>  <regarded>  (1465) 
3Q6Z_0_A_γ,5CMS_0_G_γ

>  <ref_pdb>  (1465) 
nan

>  <smiles>  (1465) 
CC1OC2(CNC3C(N)NCNC32)C(O)C1O

>  <submitter_email>  (1465) 
nan

>  <disregarded>  (1465) 


>  <LE>  (1465) 
-0.25011

>  <submitter_institution>  (1465) 
nan

>  <ref_mols>  (1465) 
3Q6Z_0_A,5CMS_0_G

>  <N_constrained_atoms>  (1465) 
17.0

>  <ref_url>  (1465) 
nan

>  <method>  (1465) 
nan

>  <comRMSD>  (1465) 
nan

>  <N_unconstrained_atoms>  (1465) 
0.0

>  <∆∆G>  (1465) 
-4.251878

>  <runtime>  (1465) 
30.084766

>  <generation_date>  (1465) 
nan

$$$$
6FX7_0_A_δ-mArh-5l9k_B_0_B_γ
     RDKit          3D

 17 19  0  0  0  0  0  0  0  0999 V2000
   -3.9530   15.5650    1.7980 N   0  0  0  0  0  0  0  0  0  0  0  0
   -2.9260   14.8970    1.0200 C   0  0  1  0  0  0  0  0  0  0  0  0
   -2.8840   15.3480   -0.4420 C   0  0  1  0  0  0  0  0  0  0  0  0
   -1.6630   15.2160    1.6500 N   0  0  0  0  0  0  0  0  0  0  0  0
   -1.7260   14.5880   -1.0710 C   0  0  1  0  0  0  0  0  0  0  0  0
   -4.0370   15.0680   -1.3070 N   0  0  0  0  0  0  0  0  0  0  0  0
   -0.4950   14.6370    0.9940 C   0  0  0  0  0  0  0  0  0  0  0  0
   -1.9500   14.8310   -2.5910 C   0  0  1  0  0  0  0  0  0  0  0  0
   -3.4450   15.2000   -2.6560 C   0  0  0  0  0  0  0  0  0  0  0  0
   -0.4890   14.9860   -0.4130 N   0  0  0  0  0  0  0  0  0  0  0  0
   -1.1150   15.9580   -3.0440 O   0  0  0  0  0  0  0  0  0  0  0  0
   -1.6120   13.6920   -3.5760 C   0  0  1  0  0  0  0  0  0  0  0  0
   -2.6740   12.8910   -4.0530 O   0  0  0  0  0  0  0  0  0  0  0  0
   -1.0070   15.8270   -4.4710 C   0  0  2  0  0  0  0  0  0  0  0  0
   -0.8510   14.3310   -4.7370 C   0  0  1  0  0  0  0  0  0  0  0  0
    0.1040   16.6970   -5.0350 C   0  0  0  0  0  0  0  0  0  0  0  0
    0.4890   13.8520   -4.7670 O   0  0  0  0  0  0  0  0  0  0  0  0
  2  1  1  1
  2  3  1  0
  2  4  1  0
  3  5  1  0
  3  6  1  6
  4  7  1  0
  5  8  1  0
  6  9  1  0
  8  9  1  1
  5 10  1  1
  7 10  1  0
  8 11  1  0
  8 12  1  0
 12 13  1  6
 11 14  1  0
 12 15  1  0
 14 15  1  0
 14 16  1  1
 15 17  1  1
M  END
>  <%Rank>  (1466) 
nan

>  <N_hits>  (1466) 
2

>  <submitter_name>  (1466) 
nan

>  <original SMILES>  (1466) 
nan

>  <∆G_unbound>  (1466) 
0.690665

>  <∆G_bound>  (1466) 
-3.078148

>  <regarded>  (1466) 
6FX7_0_A_δ,mArh-5l9k_B_0_B_γ

>  <ref_pdb>  (1466) 
nan

>  <smiles>  (1466) 
CC1OC2(CNC3C(N)NCNC32)C(O)C1O

>  <submitter_email>  (1466) 
nan

>  <disregarded>  (1466) 


>  <LE>  (1466) 
-0.221695

>  <submitter_institution>  (1466) 
nan

>  <ref_mols>  (1466) 
6FX7_0_A,mArh-5l9k_B_0_B

>  <N_constrained_atoms>  (1466) 
17.0

>  <ref_url>  (1466) 
nan

>  <method>  (1466) 
nan

>  <comRMSD>  (1466) 
nan

>  <N_unconstrained_atoms>  (1466) 
0.0

>  <∆∆G>  (1466) 
-3.768813

>  <runtime>  (1466) 
30.17632

>  <generation_date>  (1466) 
nan

$$$$
5L9K_0_A_δ-mArh-2fav_B_0_B_δ
     RDKit          3D

 10 11  0  0  0  0  0  0  0  0999 V2000
   -4.4540   15.7090    2.0370 N   0  0  0  0  0  0  0  0  0  0  0  0
   -3.3040   15.6680    1.1650 C   0  0  2  0  0  0  0  0  0  0  0  0
   -3.5680   14.9960   -0.1650 C   0  0  2  0  0  0  0  0  0  0  0  0
   -2.2010   14.9800    1.8110 N   0  0  0  0  0  0  0  0  0  0  0  0
   -2.2780   15.2560   -0.9070 C   0  0  2  0  0  0  0  0  0  0  0  0
   -4.5490   15.5210   -1.1060 N   0  0  0  0  0  0  0  0  0  0  0  0
   -0.9490   15.0910    1.0680 C   0  0  0  0  0  0  0  0  0  0  0  0
   -2.6020   14.6780   -2.1810 N   0  0  0  0  0  0  0  0  0  0  0  0
   -3.9940   15.0770   -2.3910 C   0  0  0  0  0  0  0  0  0  0  0  0
   -1.1200   14.6470   -0.3000 N   0  0  0  0  0  0  0  0  0  0  0  0
  2  1  1  1
  2  3  1  0
  2  4  1  0
  3  5  1  0
  3  6  1  6
  4  7  1  0
  5  8  1  6
  6  9  1  0
  8  9  1  0
  5 10  1  0
  7 10  1  0
M  END
>  <%Rank>  (1467) 
nan

>  <N_hits>  (1467) 
2

>  <submitter_name>  (1467) 
nan

>  <original SMILES>  (1467) 
nan

>  <∆G_unbound>  (1467) 
0.213408

>  <∆G_bound>  (1467) 
-1.506978

>  <regarded>  (1467) 
5L9K_0_A_δ,mArh-2fav_B_0_B_δ

>  <ref_pdb>  (1467) 
nan

>  <smiles>  (1467) 
NC1NCNC2NCNC12

>  <submitter_email>  (1467) 
nan

>  <disregarded>  (1467) 


>  <LE>  (1467) 
-0.172039

>  <submitter_institution>  (1467) 
nan

>  <ref_mols>  (1467) 
5L9K_0_A,mArh-2fav_B_0_B

>  <N_constrained_atoms>  (1467) 
10.0

>  <ref_url>  (1467) 
nan

>  <method>  (1467) 
nan

>  <comRMSD>  (1467) 
nan

>  <N_unconstrained_atoms>  (1467) 
0.0

>  <∆∆G>  (1467) 
-1.720386

>  <runtime>  (1467) 
25.271079

>  <generation_date>  (1467) 
nan

$$$$
5CMS_0_J_α-5CMS_0_L_α
     RDKit          3D

 10 10  0  0  0  0  0  0  0  0999 V2000
    0.0090   22.4610   -8.9070 C   0  0  0  0  0  0  0  0  0  0  0  0
   -0.6710   22.8430  -10.2130 C   0  0  1  0  0  0  0  0  0  0  0  0
   -1.4880   21.7590  -10.6800 O   0  0  0  0  0  0  0  0  0  0  0  0
   -1.5640   24.0620  -10.1290 C   0  0  1  0  0  0  0  0  0  0  0  0
   -1.3830   24.9120  -11.2660 O   0  0  0  0  0  0  0  0  0  0  0  0
   -2.8390   22.0370  -10.3260 C   0  0  2  0  0  0  0  0  0  0  0  0
   -3.0120   23.5350  -10.0850 C   0  0  0  0  0  0  0  0  0  0  0  0
   -3.1340   21.3860   -9.1060 O   0  0  0  0  0  0  0  0  0  0  0  0
   -3.7920   24.1030  -11.1330 O   0  0  0  0  0  0  0  0  0  0  0  0
   -3.7030   23.8100   -8.8640 O   0  0  0  0  0  0  0  0  0  0  0  0
  2  1  1  1
  2  3  1  0
  2  4  1  0
  4  5  1  6
  3  6  1  0
  4  7  1  0
  6  7  1  0
  6  8  1  1
  7  9  1  0
  7 10  1  0
M  END
>  <%Rank>  (1468) 
nan

>  <N_hits>  (1468) 
2

>  <submitter_name>  (1468) 
nan

>  <original SMILES>  (1468) 
nan

>  <∆G_unbound>  (1468) 
0.03878

>  <∆G_bound>  (1468) 
-2.940723

>  <regarded>  (1468) 
5CMS_0_J_α,5CMS_0_L_α

>  <ref_pdb>  (1468) 
nan

>  <smiles>  (1468) 
CC1OC(O)C(O)(O)C1O

>  <submitter_email>  (1468) 
nan

>  <disregarded>  (1468) 


>  <LE>  (1468) 
-0.29795

>  <submitter_institution>  (1468) 
nan

>  <ref_mols>  (1468) 
5CMS_0_J,5CMS_0_L

>  <N_constrained_atoms>  (1468) 
10.0

>  <ref_url>  (1468) 
nan

>  <method>  (1468) 
nan

>  <comRMSD>  (1468) 
nan

>  <N_unconstrained_atoms>  (1468) 
0.0

>  <∆∆G>  (1468) 
-2.979502

>  <runtime>  (1468) 
26.049883

>  <generation_date>  (1468) 
nan

$$$$
mArh-5cms_M_12_M_γ-mArh-5cb5_I_0_I_γ
     RDKit          3D

  8  8  0  0  0  0  0  0  0  0999 V2000
   -0.8420   12.1990   -4.2720 O   0  0  0  0  0  0  0  0  0  0  0  0
   -1.0440   13.6070   -4.3510 C   0  0  1  0  0  0  0  0  0  0  0  0
   -0.7970   14.3170   -3.0220 C   0  0  0  0  0  0  0  0  0  0  0  0
    0.0400   14.2180   -5.2000 C   0  0  2  0  0  0  0  0  0  0  0  0
    1.2930   13.5930   -4.9430 O   0  0  0  0  0  0  0  0  0  0  0  0
   -0.1370   15.5710   -3.3320 O   0  0  0  0  0  0  0  0  0  0  0  0
   -0.1360   15.6710   -4.7650 C   0  0  1  0  0  0  0  0  0  0  0  0
    0.8460   16.7210   -5.2470 C   0  0  0  0  0  0  0  0  0  0  0  0
  2  1  1  1
  2  3  1  0
  2  4  1  0
  4  5  1  1
  3  6  1  0
  4  7  1  0
  6  7  1  0
  7  8  1  1
M  END
>  <%Rank>  (1469) 
nan

>  <N_hits>  (1469) 
2

>  <submitter_name>  (1469) 
nan

>  <original SMILES>  (1469) 
nan

>  <∆G_unbound>  (1469) 
0.021216

>  <∆G_bound>  (1469) 
-2.841515

>  <regarded>  (1469) 
mArh-5cms_M_12_M_γ,mArh-5cb5_I_0_I_γ

>  <ref_pdb>  (1469) 
nan

>  <smiles>  (1469) 
CC1OCC(O)C1O

>  <submitter_email>  (1469) 
nan

>  <disregarded>  (1469) 


>  <LE>  (1469) 
-0.357841

>  <submitter_institution>  (1469) 
nan

>  <ref_mols>  (1469) 
mArh-5cms_M_12_M,mArh-5cb5_I_0_I

>  <N_constrained_atoms>  (1469) 
8.0

>  <ref_url>  (1469) 
nan

>  <method>  (1469) 
nan

>  <comRMSD>  (1469) 
nan

>  <N_unconstrained_atoms>  (1469) 
0.0

>  <∆∆G>  (1469) 
-2.862731

>  <runtime>  (1469) 
28.948772

>  <generation_date>  (1469) 
nan

$$$$
2FAV_0_B_δ-6WOJ_0_D_δ
     RDKit          3D

 10 11  0  0  0  0  0  0  0  0999 V2000
   -4.1980   14.8970    1.4730 N   0  0  0  0  0  0  0  0  0  0  0  0
   -2.8910   14.9860    0.8550 C   0  0  2  0  0  0  0  0  0  0  0  0
   -2.8560   14.4680   -0.5930 C   0  0  2  0  0  0  0  0  0  0  0  0
   -1.9980   14.2300    1.7130 N   0  0  0  0  0  0  0  0  0  0  0  0
   -1.3840   14.4690   -0.9810 C   0  0  2  0  0  0  0  0  0  0  0  0
   -3.4350   15.2320   -1.7030 N   0  0  0  0  0  0  0  0  0  0  0  0
   -0.6210   14.1260    1.2300 C   0  0  0  0  0  0  0  0  0  0  0  0
   -1.4640   14.0660   -2.3630 N   0  0  0  0  0  0  0  0  0  0  0  0
   -2.6550   14.7640   -2.8580 C   0  0  0  0  0  0  0  0  0  0  0  0
   -0.5790   13.6330   -0.1460 N   0  0  0  0  0  0  0  0  0  0  0  0
  2  1  1  1
  2  3  1  0
  2  4  1  0
  3  5  1  0
  3  6  1  6
  4  7  1  0
  5  8  1  6
  6  9  1  0
  8  9  1  0
  5 10  1  0
  7 10  1  0
M  END
>  <%Rank>  (1470) 
nan

>  <N_hits>  (1470) 
2

>  <submitter_name>  (1470) 
nan

>  <original SMILES>  (1470) 
nan

>  <∆G_unbound>  (1470) 
0.213408

>  <∆G_bound>  (1470) 
-1.530319

>  <regarded>  (1470) 
2FAV_0_B_δ,6WOJ_0_D_δ

>  <ref_pdb>  (1470) 
nan

>  <smiles>  (1470) 
NC1NCNC2NCNC12

>  <submitter_email>  (1470) 
nan

>  <disregarded>  (1470) 


>  <LE>  (1470) 
-0.174373

>  <submitter_institution>  (1470) 
nan

>  <ref_mols>  (1470) 
2FAV_0_B,6WOJ_0_D

>  <N_constrained_atoms>  (1470) 
10.0

>  <ref_url>  (1470) 
nan

>  <method>  (1470) 
nan

>  <comRMSD>  (1470) 
nan

>  <N_unconstrained_atoms>  (1470) 
0.0

>  <∆∆G>  (1470) 
-1.743727

>  <runtime>  (1470) 
30.375264

>  <generation_date>  (1470) 
nan

$$$$
6WOJ_0_D_γ-mArh-5cb5_L_0_L_γ
     RDKit          3D

  8  8  0  0  0  0  0  0  0  0999 V2000
   -0.6180   12.2210   -4.3910 O   0  0  0  0  0  0  0  0  0  0  0  0
   -0.7260   13.6410   -4.3010 C   0  0  1  0  0  0  0  0  0  0  0  0
   -0.4050   14.1750   -2.9020 C   0  0  0  0  0  0  0  0  0  0  0  0
    0.3590   14.3250   -5.0950 C   0  0  2  0  0  0  0  0  0  0  0  0
    1.6200   13.6910   -4.8960 O   0  0  0  0  0  0  0  0  0  0  0  0
    0.2480   15.4570   -3.0890 O   0  0  0  0  0  0  0  0  0  0  0  0
    0.1340   15.7050   -4.4980 C   0  0  1  0  0  0  0  0  0  0  0  0
    0.9820   16.8730   -4.9490 C   0  0  0  0  0  0  0  0  0  0  0  0
  2  1  1  1
  2  3  1  0
  2  4  1  0
  4  5  1  1
  3  6  1  0
  4  7  1  0
  6  7  1  0
  7  8  1  6
M  END
>  <%Rank>  (1471) 
nan

>  <N_hits>  (1471) 
2

>  <submitter_name>  (1471) 
nan

>  <original SMILES>  (1471) 
nan

>  <∆G_unbound>  (1471) 
0.021216

>  <∆G_bound>  (1471) 
-2.926106

>  <regarded>  (1471) 
6WOJ_0_D_γ,mArh-5cb5_L_0_L_γ

>  <ref_pdb>  (1471) 
nan

>  <smiles>  (1471) 
CC1OCC(O)C1O

>  <submitter_email>  (1471) 
nan

>  <disregarded>  (1471) 


>  <LE>  (1471) 
-0.368415

>  <submitter_institution>  (1471) 
nan

>  <ref_mols>  (1471) 
6WOJ_0_D,mArh-5cb5_L_0_L

>  <N_constrained_atoms>  (1471) 
8.0

>  <ref_url>  (1471) 
nan

>  <method>  (1471) 
nan

>  <comRMSD>  (1471) 
nan

>  <N_unconstrained_atoms>  (1471) 
0.0

>  <∆∆G>  (1471) 
-2.947323

>  <runtime>  (1471) 
23.247801

>  <generation_date>  (1471) 
nan

$$$$
mArh-5cb5_B_0_B_γ-mArh-5cms_B_1_B_γ
     RDKit          3D

  8  8  0  0  0  0  0  0  0  0999 V2000
   -0.6220   12.4700   -3.9290 O   0  0  0  0  0  0  0  0  0  0  0  0
   -0.9710   13.8440   -4.0640 C   0  0  1  0  0  0  0  0  0  0  0  0
   -0.5800   14.6650   -2.8400 C   0  0  0  0  0  0  0  0  0  0  0  0
   -0.1150   14.4700   -5.1360 C   0  0  2  0  0  0  0  0  0  0  0  0
    1.1850   13.8980   -5.1530 O   0  0  0  0  0  0  0  0  0  0  0  0
   -0.0270   15.9160   -3.3220 O   0  0  0  0  0  0  0  0  0  0  0  0
   -0.2250   15.9410   -4.7430 C   0  0  1  0  0  0  0  0  0  0  0  0
    0.7200   16.9400   -5.3920 C   0  0  0  0  0  0  0  0  0  0  0  0
  2  1  1  1
  2  3  1  0
  2  4  1  0
  4  5  1  1
  3  6  1  0
  4  7  1  0
  6  7  1  0
  7  8  1  6
M  END
>  <%Rank>  (1472) 
nan

>  <N_hits>  (1472) 
2

>  <submitter_name>  (1472) 
nan

>  <original SMILES>  (1472) 
nan

>  <∆G_unbound>  (1472) 
0.021216

>  <∆G_bound>  (1472) 
-2.702451

>  <regarded>  (1472) 
mArh-5cb5_B_0_B_γ,mArh-5cms_B_1_B_γ

>  <ref_pdb>  (1472) 
nan

>  <smiles>  (1472) 
CC1OCC(O)C1O

>  <submitter_email>  (1472) 
nan

>  <disregarded>  (1472) 


>  <LE>  (1472) 
-0.340458

>  <submitter_institution>  (1472) 
nan

>  <ref_mols>  (1472) 
mArh-5cb5_B_0_B,mArh-5cms_B_1_B

>  <N_constrained_atoms>  (1472) 
8.0

>  <ref_url>  (1472) 
nan

>  <method>  (1472) 
nan

>  <comRMSD>  (1472) 
nan

>  <N_unconstrained_atoms>  (1472) 
0.0

>  <∆∆G>  (1472) 
-2.723668

>  <runtime>  (1472) 
21.272342

>  <generation_date>  (1472) 
nan

$$$$
mArh-5cb5_P_0_P_γ-5CMS_0_I_γ
     RDKit          3D

  8  8  0  0  0  0  0  0  0  0999 V2000
   -0.6210   12.3500   -3.8340 O   0  0  0  0  0  0  0  0  0  0  0  0
   -1.0040   13.6990   -4.0880 C   0  0  1  0  0  0  0  0  0  0  0  0
   -0.7830   14.5950   -2.8760 C   0  0  0  0  0  0  0  0  0  0  0  0
   -0.0730   14.3070   -5.1150 C   0  0  2  0  0  0  0  0  0  0  0  0
    1.2340   13.7530   -5.0310 O   0  0  0  0  0  0  0  0  0  0  0  0
   -0.1900   15.8240   -3.3460 O   0  0  0  0  0  0  0  0  0  0  0  0
   -0.2300   15.7900   -4.7780 C   0  0  1  0  0  0  0  0  0  0  0  0
    0.7740   16.7770   -5.3590 C   0  0  0  0  0  0  0  0  0  0  0  0
  2  1  1  1
  2  3  1  0
  2  4  1  0
  4  5  1  1
  3  6  1  0
  4  7  1  0
  6  7  1  0
  7  8  1  6
M  END
>  <%Rank>  (1473) 
nan

>  <N_hits>  (1473) 
2

>  <submitter_name>  (1473) 
nan

>  <original SMILES>  (1473) 
nan

>  <∆G_unbound>  (1473) 
0.021216

>  <∆G_bound>  (1473) 
-2.775809

>  <regarded>  (1473) 
mArh-5cb5_P_0_P_γ,5CMS_0_I_γ

>  <ref_pdb>  (1473) 
nan

>  <smiles>  (1473) 
CC1OCC(O)C1O

>  <submitter_email>  (1473) 
nan

>  <disregarded>  (1473) 


>  <LE>  (1473) 
-0.349628

>  <submitter_institution>  (1473) 
nan

>  <ref_mols>  (1473) 
mArh-5cb5_P_0_P,5CMS_0_I

>  <N_constrained_atoms>  (1473) 
8.0

>  <ref_url>  (1473) 
nan

>  <method>  (1473) 
nan

>  <comRMSD>  (1473) 
nan

>  <N_unconstrained_atoms>  (1473) 
0.0

>  <∆∆G>  (1473) 
-2.797026

>  <runtime>  (1473) 
22.156764

>  <generation_date>  (1473) 
nan

$$$$
mArh-3vfq_B_0_A_γ-5CB5_0_I_γ
     RDKit          3D

 15 16  0  0  0  0  0  0  0  0999 V2000
   -3.9280   11.5290   -2.2680 O   0  0  0  0  0  0  0  0  0  0  0  0
   -4.2200   12.9050   -2.5050 C   0  0  1  0  0  0  0  0  0  0  0  0
   -3.5890   13.8200   -1.4630 C   0  0  0  0  0  0  0  0  0  0  0  0
   -3.6060   13.4190   -3.8160 C   0  0  2  0  0  0  0  0  0  0  0  0
   -2.2150   12.9970   -4.1150 O   0  0  0  0  0  0  0  0  0  0  0  0
   -3.3610   15.0820   -2.1370 O   0  0  0  0  0  0  0  0  0  0  0  0
   -3.7430   14.9060   -3.5250 C   0  0  1  0  0  0  0  0  0  0  0  0
   -2.9550   15.7840   -4.4930 C   0  0  0  0  0  0  0  0  0  0  0  0
   -0.9970   13.6100   -3.5330 C   0  0  2  0  0  0  0  0  0  0  0  0
   -1.1850   14.8970   -2.7630 C   0  0  0  0  0  0  0  0  0  0  0  0
    0.0540   14.0480   -4.6010 C   0  0  1  0  0  0  0  0  0  0  0  0
   -0.3390   13.8450   -5.9370 O   0  0  0  0  0  0  0  0  0  0  0  0
    0.0090   15.6810   -2.9020 O   0  0  0  0  0  0  0  0  0  0  0  0
    0.4870   15.4880   -4.2350 C   0  0  2  0  0  0  0  0  0  0  0  0
    0.0130   16.6650   -5.0910 C   0  0  0  0  0  0  0  0  0  0  0  0
  2  1  1  1
  2  3  1  0
  2  4  1  0
  4  5  1  1
  3  6  1  0
  4  7  1  0
  6  7  1  0
  7  8  1  6
  9  5  1  6
  9 10  1  0
  9 11  1  0
 11 12  1  6
 10 13  1  0
 11 14  1  0
 13 14  1  0
 14 15  1  6
M  END
>  <%Rank>  (1474) 
nan

>  <N_hits>  (1474) 
2

>  <submitter_name>  (1474) 
nan

>  <original SMILES>  (1474) 
nan

>  <∆G_unbound>  (1474) 
0.129431

>  <∆G_bound>  (1474) 
-2.108786

>  <regarded>  (1474) 
mArh-3vfq_B_0_A_γ,5CB5_0_I_γ

>  <ref_pdb>  (1474) 
nan

>  <smiles>  (1474) 
CC1OCC(OC2C(O)COC2C)C1O

>  <submitter_email>  (1474) 
nan

>  <disregarded>  (1474) 


>  <LE>  (1474) 
-0.149214

>  <submitter_institution>  (1474) 
nan

>  <ref_mols>  (1474) 
mArh-3vfq_B_0_A,5CB5_0_I

>  <N_constrained_atoms>  (1474) 
15.0

>  <ref_url>  (1474) 
nan

>  <method>  (1474) 
nan

>  <comRMSD>  (1474) 
nan

>  <N_unconstrained_atoms>  (1474) 
0.0

>  <∆∆G>  (1474) 
-2.238217

>  <runtime>  (1474) 
27.170589

>  <generation_date>  (1474) 
nan

$$$$
5CB5_0_L_γ-4IQY_0_B_δ
     RDKit          3D

 17 19  0  0  0  0  0  0  0  0999 V2000
   -1.0060   12.5950   -3.4220 O   0  0  0  0  0  0  0  0  0  0  0  0
   -0.4150   13.8840   -3.3610 C   0  0  2  0  0  0  0  0  0  0  0  0
   -1.2290   15.0130   -2.6700 C   0  0  2  0  0  0  0  0  0  0  0  0
   -0.1360   14.3650   -4.7840 C   0  0  2  0  0  0  0  0  0  0  0  0
    1.1720   13.9840   -5.1990 O   0  0  0  0  0  0  0  0  0  0  0  0
   -0.7780   16.2160   -3.3770 O   0  0  0  0  0  0  0  0  0  0  0  0
   -0.4150   15.8710   -4.7450 C   0  0  1  0  0  0  0  0  0  0  0  0
   -1.1050   15.2740   -1.1160 C   0  0  1  0  0  0  0  0  0  0  0  0
   -2.7740   14.8010   -2.7890 C   0  0  0  0  0  0  0  0  0  0  0  0
    0.7200   16.7710   -5.2290 C   0  0  0  0  0  0  0  0  0  0  0  0
   -2.5770   15.4970   -0.6640 C   0  0  1  0  0  0  0  0  0  0  0  0
   -3.3280   14.5220   -1.4370 N   0  0  0  0  0  0  0  0  0  0  0  0
   -0.3920   14.3290   -0.2530 N   0  0  0  0  0  0  0  0  0  0  0  0
   -0.4390   14.7640    1.1260 C   0  0  0  0  0  0  0  0  0  0  0  0
   -2.7260   15.5320    0.8890 C   0  0  1  0  0  0  0  0  0  0  0  0
   -4.0630   15.2280    1.3680 N   0  0  0  0  0  0  0  0  0  0  0  0
   -1.7910   14.7160    1.6270 N   0  0  0  0  0  0  0  0  0  0  0  0
  2  1  1  6
  2  3  1  0
  2  4  1  0
  4  5  1  1
  3  6  1  0
  4  7  1  0
  6  7  1  0
  3  8  1  0
  3  9  1  1
  7 10  1  1
  8 11  1  0
  9 12  1  0
 11 12  1  1
  8 13  1  1
 13 14  1  0
 11 15  1  0
 15 16  1  6
 14 17  1  0
 15 17  1  0
M  END
>  <%Rank>  (1475) 
nan

>  <N_hits>  (1475) 
2

>  <submitter_name>  (1475) 
nan

>  <original SMILES>  (1475) 
nan

>  <∆G_unbound>  (1475) 
0.631637

>  <∆G_bound>  (1475) 
-3.898324

>  <regarded>  (1475) 
5CB5_0_L_γ,4IQY_0_B_δ

>  <ref_pdb>  (1475) 
nan

>  <smiles>  (1475) 
CC1OC2(CNC3C(N)NCNC32)C(O)C1O

>  <submitter_email>  (1475) 
nan

>  <disregarded>  (1475) 


>  <LE>  (1475) 
-0.266468

>  <submitter_institution>  (1475) 
nan

>  <ref_mols>  (1475) 
5CB5_0_L,4IQY_0_B

>  <N_constrained_atoms>  (1475) 
17.0

>  <ref_url>  (1475) 
nan

>  <method>  (1475) 
nan

>  <comRMSD>  (1475) 
nan

>  <N_unconstrained_atoms>  (1475) 
0.0

>  <∆∆G>  (1475) 
-4.52996

>  <runtime>  (1475) 
31.387695

>  <generation_date>  (1475) 
nan

$$$$
mArh-5cb5_D_0_D_γ-5L9K_0_B_γ
     RDKit          3D

  9  9  0  0  0  0  0  0  0  0999 V2000
    0.1470   12.4160   -4.3940 O   0  0  0  0  0  0  0  0  0  0  0  0
   -0.4380   13.6870   -4.6410 C   0  0  1  0  0  0  0  0  0  0  0  0
   -0.8470   14.3930   -3.3700 C   0  0  2  0  0  0  0  0  0  0  0  0
    0.5980   14.5940   -5.2500 C   0  0  2  0  0  0  0  0  0  0  0  0
    1.8380   13.9260   -5.2080 O   0  0  0  0  0  0  0  0  0  0  0  0
   -2.2290   14.1360   -3.1930 O   0  0  0  0  0  0  0  0  0  0  0  0
   -0.5880   15.7880   -3.5670 O   0  0  0  0  0  0  0  0  0  0  0  0
    0.5400   15.9060   -4.4530 C   0  0  2  0  0  0  0  0  0  0  0  0
    0.3840   17.1560   -5.3110 C   0  0  0  0  0  0  0  0  0  0  0  0
  2  1  1  1
  2  3  1  0
  2  4  1  0
  4  5  1  1
  3  6  1  6
  3  7  1  0
  4  8  1  0
  7  8  1  0
  8  9  1  6
M  END
>  <%Rank>  (1476) 
nan

>  <N_hits>  (1476) 
2

>  <submitter_name>  (1476) 
nan

>  <original SMILES>  (1476) 
nan

>  <∆G_unbound>  (1476) 
0.027418

>  <∆G_bound>  (1476) 
-2.704659

>  <regarded>  (1476) 
mArh-5cb5_D_0_D_γ,5L9K_0_B_γ

>  <ref_pdb>  (1476) 
nan

>  <smiles>  (1476) 
CC1OC(O)C(O)C1O

>  <submitter_email>  (1476) 
nan

>  <disregarded>  (1476) 


>  <LE>  (1476) 
-0.303564

>  <submitter_institution>  (1476) 
nan

>  <ref_mols>  (1476) 
mArh-5cb5_D_0_D,5L9K_0_B

>  <N_constrained_atoms>  (1476) 
9.0

>  <ref_url>  (1476) 
nan

>  <method>  (1476) 
nan

>  <comRMSD>  (1476) 
nan

>  <N_unconstrained_atoms>  (1476) 
0.0

>  <∆∆G>  (1476) 
-2.732078

>  <runtime>  (1476) 
25.129501

>  <generation_date>  (1476) 
nan

$$$$
5CB5_0_Q_δ-4IQY_0_A_γ
     RDKit          3D

 17 19  0  0  0  0  0  0  0  0999 V2000
   -3.7460   15.4650    1.6020 N   0  0  0  0  0  0  0  0  0  0  0  0
   -2.6520   14.8570    0.8630 C   0  0  1  0  0  0  0  0  0  0  0  0
   -2.5310   15.3430   -0.5930 C   0  0  1  0  0  0  0  0  0  0  0  0
   -1.4560   15.2170    1.5900 N   0  0  0  0  0  0  0  0  0  0  0  0
   -1.2700   14.6790   -1.1210 C   0  0  1  0  0  0  0  0  0  0  0  0
   -3.5690   14.9830   -1.5720 N   0  0  0  0  0  0  0  0  0  0  0  0
   -0.2110   14.7380    0.9960 C   0  0  0  0  0  0  0  0  0  0  0  0
   -1.3500   14.8640   -2.6510 C   0  0  1  0  0  0  0  0  0  0  0  0
   -2.8590   15.1380   -2.8690 C   0  0  0  0  0  0  0  0  0  0  0  0
   -0.1230   15.1560   -0.3810 N   0  0  0  0  0  0  0  0  0  0  0  0
   -0.5490   16.0210   -3.0680 O   0  0  0  0  0  0  0  0  0  0  0  0
   -0.7580   13.7140   -3.5020 C   0  0  1  0  0  0  0  0  0  0  0  0
   -1.6050   12.6600   -3.9160 O   0  0  0  0  0  0  0  0  0  0  0  0
   -0.3470   15.8480   -4.4800 C   0  0  2  0  0  0  0  0  0  0  0  0
   -0.0490   14.3640   -4.6900 C   0  0  1  0  0  0  0  0  0  0  0  0
    0.7190   16.7840   -5.0190 C   0  0  0  0  0  0  0  0  0  0  0  0
    1.3310   14.0120   -4.6890 O   0  0  0  0  0  0  0  0  0  0  0  0
  2  1  1  1
  2  3  1  0
  2  4  1  0
  3  5  1  0
  3  6  1  6
  4  7  1  0
  5  8  1  0
  6  9  1  0
  8  9  1  6
  5 10  1  1
  7 10  1  0
  8 11  1  0
  8 12  1  0
 12 13  1  6
 11 14  1  0
 12 15  1  0
 14 15  1  0
 14 16  1  1
 15 17  1  1
M  END
>  <%Rank>  (1477) 
nan

>  <N_hits>  (1477) 
2

>  <submitter_name>  (1477) 
nan

>  <original SMILES>  (1477) 
nan

>  <∆G_unbound>  (1477) 
0.690665

>  <∆G_bound>  (1477) 
-3.195808

>  <regarded>  (1477) 
5CB5_0_Q_δ,4IQY_0_A_γ

>  <ref_pdb>  (1477) 
nan

>  <smiles>  (1477) 
CC1OC2(CNC3C(N)NCNC32)C(O)C1O

>  <submitter_email>  (1477) 
nan

>  <disregarded>  (1477) 


>  <LE>  (1477) 
-0.228616

>  <submitter_institution>  (1477) 
nan

>  <ref_mols>  (1477) 
5CB5_0_Q,4IQY_0_A

>  <N_constrained_atoms>  (1477) 
17.0

>  <ref_url>  (1477) 
nan

>  <method>  (1477) 
nan

>  <comRMSD>  (1477) 
nan

>  <N_unconstrained_atoms>  (1477) 
0.0

>  <∆∆G>  (1477) 
-3.886472

>  <runtime>  (1477) 
28.900164

>  <generation_date>  (1477) 
nan

$$$$
2FAV_0_B_α-5LW0_1_B_δ
     RDKit          3D

 23 25  0  0  0  0  0  0  0  0999 V2000
   -1.2100   21.6640   -7.7880 C   0  0  0  0  0  0  0  0  0  0  0  0
   -2.7200   21.6610   -7.9920 C   0  0  1  0  0  0  0  0  0  0  0  0
   -3.3720   20.8390   -6.9080 N   0  0  0  0  0  0  0  0  0  0  0  0
   -3.2810   23.1060   -7.9350 C   0  0  1  0  0  0  0  0  0  0  0  0
   -3.8880   23.4460   -9.1980 O   0  0  0  0  0  0  0  0  0  0  0  0
   -2.5130   20.4200   -5.7460 C   0  0  0  0  0  0  0  0  0  0  0  0
   -4.5270   21.6380   -6.4080 C   0  0  0  0  0  0  0  0  0  0  0  0
   -4.3810   23.0930   -6.8810 C   0  0  1  0  0  0  0  0  0  0  0  0
   -4.1300   24.0240   -5.8550 O   0  0  0  0  0  0  0  0  0  0  0  0
   -1.8520   18.9860   -5.5240 C   0  0  0  0  0  0  0  0  0  0  0  0
   -2.4130   17.6610   -6.1110 C   0  0  0  0  0  0  0  0  0  0  0  0
   -2.7070   16.3900   -5.1950 C   0  0  0  0  0  0  0  0  0  0  0  0
   -2.1450   16.2370   -3.7320 C   0  0  0  0  0  0  0  0  0  0  0  0
   -2.7860   15.1220   -2.7880 C   0  0  1  0  0  0  0  0  0  0  0  0
   -1.7750   14.2880   -2.1570 N   0  0  0  0  0  0  0  0  0  0  0  0
   -3.6250   15.5780   -1.6380 N   0  0  0  0  0  0  0  0  0  0  0  0
   -1.4610   14.9110   -0.8860 C   0  0  1  0  0  0  0  0  0  0  0  0
   -2.7510   15.5640   -0.4180 C   0  0  2  0  0  0  0  0  0  0  0  0
   -0.9510   13.9280    0.0170 N   0  0  0  0  0  0  0  0  0  0  0  0
   -3.2640   14.7690    0.8200 C   0  0  2  0  0  0  0  0  0  0  0  0
   -4.4050   15.3550    1.5190 N   0  0  0  0  0  0  0  0  0  0  0  0
   -0.9130   14.4120    1.3700 C   0  0  0  0  0  0  0  0  0  0  0  0
   -2.2530   14.7590    1.8540 N   0  0  0  0  0  0  0  0  0  0  0  0
  2  1  1  1
  2  3  1  0
  2  4  1  0
  4  5  1  6
  3  6  1  0
  3  7  1  0
  4  8  1  0
  7  8  1  0
  8  9  1  1
  6 10  1  0
 10 11  1  0
 11 12  1  0
 12 13  1  0
 14 13  1  1
 14 15  1  0
 14 16  1  0
 17 15  1  6
 18 16  1  6
 17 18  1  0
 17 19  1  0
 18 20  1  0
 20 21  1  1
 19 22  1  0
 20 23  1  0
 22 23  1  0
M  END
>  <%Rank>  (1478) 
nan

>  <N_hits>  (1478) 
2

>  <submitter_name>  (1478) 
nan

>  <original SMILES>  (1478) 
nan

>  <∆G_unbound>  (1478) 
0.832526

>  <∆G_bound>  (1478) 
-9.882568

>  <regarded>  (1478) 
2FAV_0_B_α,5LW0_1_B_δ

>  <ref_pdb>  (1478) 
nan

>  <smiles>  (1478) 
CC1C(O)C(O)CN1CCCCCC1NC2NCNC(N)C2N1

>  <submitter_email>  (1478) 
nan

>  <disregarded>  (1478) 


>  <LE>  (1478) 
-0.465874

>  <submitter_institution>  (1478) 
nan

>  <ref_mols>  (1478) 
2FAV_0_B,5LW0_1_B

>  <N_constrained_atoms>  (1478) 
18.0

>  <ref_url>  (1478) 
nan

>  <method>  (1478) 
nan

>  <comRMSD>  (1478) 
nan

>  <N_unconstrained_atoms>  (1478) 
5.0

>  <∆∆G>  (1478) 
-10.715094

>  <runtime>  (1478) 
38.719476

>  <generation_date>  (1478) 
nan

$$$$
mArh-5cb5_H_0_H_α-mArh-2bfq_0_A_α
     RDKit          3D

  9  9  0  0  0  0  0  0  0  0999 V2000
   -1.9860   21.8940   -8.1940 C   0  0  0  0  0  0  0  0  0  0  0  0
   -3.4050   21.9570   -8.7380 C   0  0  1  0  0  0  0  0  0  0  0  0
   -4.1950   20.9950   -8.0210 O   0  0  0  0  0  0  0  0  0  0  0  0
   -4.0440   23.3410   -8.5740 C   0  0  1  0  0  0  0  0  0  0  0  0
   -4.3900   23.9650   -9.8040 O   0  0  0  0  0  0  0  0  0  0  0  0
   -5.3860   21.5990   -7.5370 C   0  0  2  0  0  0  0  0  0  0  0  0
   -5.3230   23.1060   -7.7850 C   0  0  1  0  0  0  0  0  0  0  0  0
   -5.4610   21.3830   -6.1300 O   0  0  0  0  0  0  0  0  0  0  0  0
   -5.3870   23.8900   -6.5950 O   0  0  0  0  0  0  0  0  0  0  0  0
  2  1  1  1
  2  3  1  0
  2  4  1  0
  4  5  1  6
  3  6  1  0
  4  7  1  0
  6  7  1  0
  6  8  1  1
  7  9  1  1
M  END
>  <%Rank>  (1479) 
nan

>  <N_hits>  (1479) 
2

>  <submitter_name>  (1479) 
nan

>  <original SMILES>  (1479) 
nan

>  <∆G_unbound>  (1479) 
0.037019

>  <∆G_bound>  (1479) 
-6.418966

>  <regarded>  (1479) 
mArh-5cb5_H_0_H_α,mArh-2bfq_0_A_α

>  <ref_pdb>  (1479) 
nan

>  <smiles>  (1479) 
CC1OC(O)C(O)C1O

>  <submitter_email>  (1479) 
nan

>  <disregarded>  (1479) 


>  <LE>  (1479) 
-0.717332

>  <submitter_institution>  (1479) 
nan

>  <ref_mols>  (1479) 
mArh-5cb5_H_0_H,mArh-2bfq_0_A

>  <N_constrained_atoms>  (1479) 
9.0

>  <ref_url>  (1479) 
nan

>  <method>  (1479) 
nan

>  <comRMSD>  (1479) 
nan

>  <N_unconstrained_atoms>  (1479) 
0.0

>  <∆∆G>  (1479) 
-6.455985

>  <runtime>  (1479) 
24.352121

>  <generation_date>  (1479) 
nan

$$$$
mArh-6woj_D_0_D_γ-5CB5_0_A_δ
     RDKit          3D

 17 19  0  0  0  0  0  0  0  0999 V2000
   -1.3460   12.6650   -3.8250 O   0  0  0  0  0  0  0  0  0  0  0  0
   -0.5060   13.7270   -3.3880 C   0  0  2  0  0  0  0  0  0  0  0  0
   -1.1930   14.9160   -2.6450 C   0  0  2  0  0  0  0  0  0  0  0  0
    0.1870   14.3080   -4.6320 C   0  0  2  0  0  0  0  0  0  0  0  0
    1.5650   13.9550   -4.6850 O   0  0  0  0  0  0  0  0  0  0  0  0
   -0.5290   16.0850   -3.2040 O   0  0  0  0  0  0  0  0  0  0  0  0
   -0.1460   15.7990   -4.5600 C   0  0  1  0  0  0  0  0  0  0  0  0
   -1.1290   15.1340   -1.0890 C   0  0  1  0  0  0  0  0  0  0  0  0
   -2.7460   14.9390   -2.8570 C   0  0  0  0  0  0  0  0  0  0  0  0
    0.9380   16.7760   -4.9710 C   0  0  0  0  0  0  0  0  0  0  0  0
   -2.5850   15.5230   -0.7000 C   0  0  1  0  0  0  0  0  0  0  0  0
   -3.4180   14.6880   -1.5530 N   0  0  0  0  0  0  0  0  0  0  0  0
   -0.5430   14.1340   -0.2030 N   0  0  0  0  0  0  0  0  0  0  0  0
   -0.5540   14.6140    1.1600 C   0  0  0  0  0  0  0  0  0  0  0  0
   -2.7990   15.5410    0.8470 C   0  0  1  0  0  0  0  0  0  0  0  0
   -4.1530   15.2400    1.2750 N   0  0  0  0  0  0  0  0  0  0  0  0
   -1.9160   14.7050    1.6330 N   0  0  0  0  0  0  0  0  0  0  0  0
  2  1  1  6
  2  3  1  0
  2  4  1  0
  4  5  1  1
  3  6  1  0
  4  7  1  0
  6  7  1  0
  3  8  1  0
  3  9  1  6
  7 10  1  1
  8 11  1  0
  9 12  1  0
 11 12  1  6
  8 13  1  1
 13 14  1  0
 11 15  1  0
 15 16  1  6
 14 17  1  0
 15 17  1  0
M  END
>  <%Rank>  (1480) 
nan

>  <N_hits>  (1480) 
2

>  <submitter_name>  (1480) 
nan

>  <original SMILES>  (1480) 
nan

>  <∆G_unbound>  (1480) 
0.631637

>  <∆G_bound>  (1480) 
-3.765218

>  <regarded>  (1480) 
mArh-6woj_D_0_D_γ,5CB5_0_A_δ

>  <ref_pdb>  (1480) 
nan

>  <smiles>  (1480) 
CC1OC2(CNC3C(N)NCNC32)C(O)C1O

>  <submitter_email>  (1480) 
nan

>  <disregarded>  (1480) 


>  <LE>  (1480) 
-0.258638

>  <submitter_institution>  (1480) 
nan

>  <ref_mols>  (1480) 
mArh-6woj_D_0_D,5CB5_0_A

>  <N_constrained_atoms>  (1480) 
17.0

>  <ref_url>  (1480) 
nan

>  <method>  (1480) 
nan

>  <comRMSD>  (1480) 
nan

>  <N_unconstrained_atoms>  (1480) 
0.0

>  <∆∆G>  (1480) 
-4.396854

>  <runtime>  (1480) 
30.142853

>  <generation_date>  (1480) 
nan

$$$$
5CB5_0_C_α-5CB5_0_L_α
     RDKit          3D

  9  9  0  0  0  0  0  0  0  0999 V2000
   -1.9210   22.1050   -8.0810 C   0  0  0  0  0  0  0  0  0  0  0  0
   -3.3700   22.1930   -8.5200 C   0  0  1  0  0  0  0  0  0  0  0  0
   -4.1220   21.3200   -7.6820 O   0  0  0  0  0  0  0  0  0  0  0  0
   -3.9800   23.5860   -8.3620 C   0  0  1  0  0  0  0  0  0  0  0  0
   -4.3290   24.1530   -9.6110 O   0  0  0  0  0  0  0  0  0  0  0  0
   -5.3950   21.8940   -7.4260 C   0  0  2  0  0  0  0  0  0  0  0  0
   -5.2730   23.3970   -7.5710 C   0  0  1  0  0  0  0  0  0  0  0  0
   -5.7750   21.5690   -6.0830 O   0  0  0  0  0  0  0  0  0  0  0  0
   -5.3440   24.1200   -6.3480 O   0  0  0  0  0  0  0  0  0  0  0  0
  2  1  1  1
  2  3  1  0
  2  4  1  0
  4  5  1  6
  3  6  1  0
  4  7  1  0
  6  7  1  0
  6  8  1  1
  7  9  1  1
M  END
>  <%Rank>  (1481) 
nan

>  <N_hits>  (1481) 
2

>  <submitter_name>  (1481) 
nan

>  <original SMILES>  (1481) 
nan

>  <∆G_unbound>  (1481) 
0.037019

>  <∆G_bound>  (1481) 
-6.528037

>  <regarded>  (1481) 
5CB5_0_C_α,5CB5_0_L_α

>  <ref_pdb>  (1481) 
nan

>  <smiles>  (1481) 
CC1OC(O)C(O)C1O

>  <submitter_email>  (1481) 
nan

>  <disregarded>  (1481) 


>  <LE>  (1481) 
-0.729451

>  <submitter_institution>  (1481) 
nan

>  <ref_mols>  (1481) 
5CB5_0_C,5CB5_0_L

>  <N_constrained_atoms>  (1481) 
9.0

>  <ref_url>  (1481) 
nan

>  <method>  (1481) 
nan

>  <comRMSD>  (1481) 
nan

>  <N_unconstrained_atoms>  (1481) 
0.0

>  <∆∆G>  (1481) 
-6.565056

>  <runtime>  (1481) 
23.149459

>  <generation_date>  (1481) 
nan

$$$$
mArh-5cms_F_6_F_α-5CB5_0_R_α
     RDKit          3D

 16 18  0  0  0  0  0  0  0  0999 V2000
   -2.0880   21.5210   -9.7190 C   0  0  0  0  0  0  0  0  0  0  0  0
   -1.6700   22.5990  -10.6770 C   0  0  2  0  0  0  0  0  0  0  0  0
   -0.4490   23.4630  -10.3300 C   0  0  1  0  0  0  0  0  0  0  0  0
   -2.8650   22.0040   -8.4890 C   0  0  2  0  0  0  0  0  0  0  0  0
   -2.8450   23.5300  -11.0540 C   0  0  1  0  0  0  0  0  0  0  0  0
   -3.8500   21.0320   -8.1020 O   0  0  0  0  0  0  0  0  0  0  0  0
   -3.6190   23.3190   -8.6610 C   0  0  1  0  0  0  0  0  0  0  0  0
    0.6190   23.3320  -11.2440 O   0  0  0  0  0  0  0  0  0  0  0  0
   -3.8850   23.7100  -10.0380 O   0  0  0  0  0  0  0  0  0  0  0  0
   -2.1480   24.8470  -11.3890 C   0  0  1  0  0  0  0  0  0  0  0  0
   -4.6440   21.7170   -7.1600 C   0  0  1  0  0  0  0  0  0  0  0  0
   -4.9100   23.0780   -7.8120 C   0  0  1  0  0  0  0  0  0  0  0  0
   -0.9200   24.8780  -10.4570 C   0  0  0  0  0  0  0  0  0  0  0  0
   -1.7190   25.0150  -12.7130 O   0  0  0  0  0  0  0  0  0  0  0  0
   -5.8480   21.0130   -6.9020 O   0  0  0  0  0  0  0  0  0  0  0  0
   -5.2170   24.0570   -6.8020 O   0  0  0  0  0  0  0  0  0  0  0  0
  2  1  1  1
  2  3  1  0
  4  1  1  6
  2  5  1  0
  4  6  1  0
  4  7  1  0
  3  8  1  6
  5  9  1  1
  7  9  1  6
  5 10  1  0
  6 11  1  0
  7 12  1  0
 11 12  1  0
  3 13  1  0
 10 13  1  0
 10 14  1  6
 11 15  1  6
 12 16  1  1
M  END
>  <%Rank>  (1482) 
nan

>  <N_hits>  (1482) 
2

>  <submitter_name>  (1482) 
nan

>  <original SMILES>  (1482) 
nan

>  <∆G_unbound>  (1482) 
0.268442

>  <∆G_bound>  (1482) 
-4.960899

>  <regarded>  (1482) 
mArh-5cms_F_6_F_α,5CB5_0_R_α

>  <ref_pdb>  (1482) 
nan

>  <smiles>  (1482) 
OC1CC(O)C2OC3C(CC12)OC(O)C3O

>  <submitter_email>  (1482) 
nan

>  <disregarded>  (1482) 


>  <LE>  (1482) 
-0.326834

>  <submitter_institution>  (1482) 
nan

>  <ref_mols>  (1482) 
mArh-5cms_F_6_F,5CB5_0_R

>  <N_constrained_atoms>  (1482) 
13.0

>  <ref_url>  (1482) 
nan

>  <method>  (1482) 
nan

>  <comRMSD>  (1482) 
nan

>  <N_unconstrained_atoms>  (1482) 
3.0

>  <∆∆G>  (1482) 
-5.22934

>  <runtime>  (1482) 
35.781512

>  <generation_date>  (1482) 
nan

$$$$
5CB5_0_D_δ-mArh-6mea_B_0_B_γ
     RDKit          3D

 17 19  0  0  0  0  0  0  0  0999 V2000
   -3.8320   15.4320    1.5510 N   0  0  0  0  0  0  0  0  0  0  0  0
   -2.7370   14.8570    0.7850 C   0  0  1  0  0  0  0  0  0  0  0  0
   -2.6550   15.4180   -0.6510 C   0  0  1  0  0  0  0  0  0  0  0  0
   -1.5620   15.2150    1.5320 N   0  0  0  0  0  0  0  0  0  0  0  0
   -1.2000   15.3020   -1.1600 C   0  0  2  0  0  0  0  0  0  0  0  0
   -3.5150   14.7830   -1.6670 N   0  0  0  0  0  0  0  0  0  0  0  0
   -0.3440   14.5930    1.0390 C   0  0  0  0  0  0  0  0  0  0  0  0
   -1.3510   15.0530   -2.7030 C   0  0  1  0  0  0  0  0  0  0  0  0
   -2.8620   15.1940   -2.9210 C   0  0  0  0  0  0  0  0  0  0  0  0
   -0.4380   14.3270   -0.3840 N   0  0  0  0  0  0  0  0  0  0  0  0
   -0.6140   16.1780   -3.2820 O   0  0  0  0  0  0  0  0  0  0  0  0
   -0.7550   13.8350   -3.4670 C   0  0  1  0  0  0  0  0  0  0  0  0
   -1.6170   12.7520   -3.7580 O   0  0  0  0  0  0  0  0  0  0  0  0
   -0.3350   15.8940   -4.6550 C   0  0  2  0  0  0  0  0  0  0  0  0
   -0.1790   14.3820   -4.7820 C   0  0  1  0  0  0  0  0  0  0  0  0
    0.8570   16.7110   -5.1130 C   0  0  0  0  0  0  0  0  0  0  0  0
    1.1470   13.9080   -5.0040 O   0  0  0  0  0  0  0  0  0  0  0  0
  2  1  1  1
  2  3  1  0
  2  4  1  0
  3  5  1  0
  3  6  1  6
  4  7  1  0
  5  8  1  0
  6  9  1  0
  8  9  1  6
  5 10  1  1
  7 10  1  0
  8 11  1  0
  8 12  1  0
 12 13  1  6
 11 14  1  0
 12 15  1  0
 14 15  1  0
 14 16  1  1
 15 17  1  1
M  END
>  <%Rank>  (1483) 
nan

>  <N_hits>  (1483) 
2

>  <submitter_name>  (1483) 
nan

>  <original SMILES>  (1483) 
nan

>  <∆G_unbound>  (1483) 
0.690665

>  <∆G_bound>  (1483) 
-4.151934

>  <regarded>  (1483) 
5CB5_0_D_δ,mArh-6mea_B_0_B_γ

>  <ref_pdb>  (1483) 
nan

>  <smiles>  (1483) 
CC1OC2(CNC3C(N)NCNC32)C(O)C1O

>  <submitter_email>  (1483) 
nan

>  <disregarded>  (1483) 


>  <LE>  (1483) 
-0.284859

>  <submitter_institution>  (1483) 
nan

>  <ref_mols>  (1483) 
5CB5_0_D,mArh-6mea_B_0_B

>  <N_constrained_atoms>  (1483) 
17.0

>  <ref_url>  (1483) 
nan

>  <method>  (1483) 
nan

>  <comRMSD>  (1483) 
nan

>  <N_unconstrained_atoms>  (1483) 
0.0

>  <∆∆G>  (1483) 
-4.842598

>  <runtime>  (1483) 
29.966753

>  <generation_date>  (1483) 
nan

$$$$
mArh-2fav_B_0_B_α-mArh-2fav_B_0_B_δ
     RDKit          3D

 23 25  0  0  0  0  0  0  0  0999 V2000
   -1.5790   22.5230   -7.8960 C   0  0  0  0  0  0  0  0  0  0  0  0
   -2.8470   21.8360   -8.3690 C   0  0  1  0  0  0  0  0  0  0  0  0
   -3.1410   20.8420   -7.3370 N   0  0  0  0  0  0  0  0  0  0  0  0
   -4.1220   22.7180   -8.4340 C   0  0  2  0  0  0  0  0  0  0  0  0
   -3.7810   24.0720   -8.7210 O   0  0  0  0  0  0  0  0  0  0  0  0
   -1.9390   20.0730   -6.8830 C   0  0  0  0  0  0  0  0  0  0  0  0
   -3.9220   21.5610   -6.2970 C   0  0  0  0  0  0  0  0  0  0  0  0
   -4.8050   22.5600   -7.0560 C   0  0  1  0  0  0  0  0  0  0  0  0
   -5.0720   23.7830   -6.3680 O   0  0  0  0  0  0  0  0  0  0  0  0
   -2.3720   18.8760   -6.0220 C   0  0  0  0  0  0  0  0  0  0  0  0
   -1.4970   17.6590   -5.6490 C   0  0  0  0  0  0  0  0  0  0  0  0
   -2.4300   16.4470   -5.3280 C   0  0  0  0  0  0  0  0  0  0  0  0
   -1.9210   15.2700   -4.4580 C   0  0  0  0  0  0  0  0  0  0  0  0
   -1.8830   15.5220   -2.9310 C   0  0  2  0  0  0  0  0  0  0  0  0
   -0.7760   14.8450   -2.3030 N   0  0  0  0  0  0  0  0  0  0  0  0
   -3.0330   15.0750   -2.1110 N   0  0  0  0  0  0  0  0  0  0  0  0
   -0.9950   15.0630   -0.8920 C   0  0  1  0  0  0  0  0  0  0  0  0
   -2.4860   15.3590   -0.7410 C   0  0  2  0  0  0  0  0  0  0  0  0
   -0.5550   13.9290   -0.1490 N   0  0  0  0  0  0  0  0  0  0  0  0
   -3.0000   14.4830    0.4410 C   0  0  2  0  0  0  0  0  0  0  0  0
   -4.2600   14.9450    1.0130 N   0  0  0  0  0  0  0  0  0  0  0  0
   -0.7300   14.1330    1.2680 C   0  0  0  0  0  0  0  0  0  0  0  0
   -2.0940   14.5790    1.5770 N   0  0  0  0  0  0  0  0  0  0  0  0
  2  1  1  1
  2  3  1  0
  2  4  1  0
  4  5  1  1
  3  6  1  0
  3  7  1  0
  4  8  1  0
  7  8  1  0
  8  9  1  1
  6 10  1  0
 10 11  1  0
 11 12  1  0
 12 13  1  0
 14 13  1  6
 14 15  1  0
 14 16  1  0
 17 15  1  6
 18 16  1  6
 17 18  1  0
 17 19  1  0
 18 20  1  0
 20 21  1  1
 19 22  1  0
 20 23  1  0
 22 23  1  0
M  END
>  <%Rank>  (1484) 
nan

>  <N_hits>  (1484) 
2

>  <submitter_name>  (1484) 
nan

>  <original SMILES>  (1484) 
nan

>  <∆G_unbound>  (1484) 
0.832526

>  <∆G_bound>  (1484) 
-10.55428

>  <regarded>  (1484) 
mArh-2fav_B_0_B_α,mArh-2fav_B_0_B_δ

>  <ref_pdb>  (1484) 
nan

>  <smiles>  (1484) 
CC1C(O)C(O)CN1CCCCCC1NC2NCNC(N)C2N1

>  <submitter_email>  (1484) 
nan

>  <disregarded>  (1484) 


>  <LE>  (1484) 
-0.495079

>  <submitter_institution>  (1484) 
nan

>  <ref_mols>  (1484) 
mArh-2fav_B_0_B,mArh-2fav_B_0_B

>  <N_constrained_atoms>  (1484) 
18.0

>  <ref_url>  (1484) 
nan

>  <method>  (1484) 
nan

>  <comRMSD>  (1484) 
nan

>  <N_unconstrained_atoms>  (1484) 
5.0

>  <∆∆G>  (1484) 
-11.386806

>  <runtime>  (1484) 
36.899779

>  <generation_date>  (1484) 
nan

$$$$
5CB5_0_P_δ-mArh-5cms_L_11_L_γ
     RDKit          3D

 19 21  0  0  0  0  0  0  0  0999 V2000
   -4.6530   15.3760    1.8070 N   0  0  0  0  0  0  0  0  0  0  0  0
   -3.3440   15.5490    1.2100 C   0  0  2  0  0  0  0  0  0  0  0  0
   -3.2130   14.9800   -0.1770 C   0  0  2  0  0  0  0  0  0  0  0  0
   -2.3850   14.7990    1.9710 N   0  0  0  0  0  0  0  0  0  0  0  0
   -1.9530   15.6250   -0.6710 C   0  0  2  0  0  0  0  0  0  0  0  0
   -4.1710   15.4090   -1.2050 N   0  0  0  0  0  0  0  0  0  0  0  0
   -1.0940   14.5030    1.3010 C   0  0  0  0  0  0  0  0  0  0  0  0
   -1.9740   15.2500   -2.0570 N   0  0  0  0  0  0  0  0  0  0  0  0
   -3.4010   15.1720   -2.4220 C   0  0  0  0  0  0  0  0  0  0  0  0
   -0.7810   15.2340    0.0790 N   0  0  0  0  0  0  0  0  0  0  0  0
   -1.2320   14.0280   -2.3060 C   0  0  0  0  0  0  0  0  0  0  0  0
    0.0640   14.3080   -3.0520 C   0  0  2  0  0  0  0  0  0  0  0  0
    0.0780   15.6710   -3.5750 O   0  0  0  0  0  0  0  0  0  0  0  0
    0.1620   13.3920   -4.2580 C   0  0  2  0  0  0  0  0  0  0  0  0
    0.9590   12.2270   -4.0170 O   0  0  0  0  0  0  0  0  0  0  0  0
    0.1370   15.5880   -5.0050 C   0  0  2  0  0  0  0  0  0  0  0  0
    0.8780   14.2710   -5.2360 C   0  0  2  0  0  0  0  0  0  0  0  0
    0.7870   16.8480   -5.5470 C   0  0  0  0  0  0  0  0  0  0  0  0
    0.7150   13.6830   -6.4970 O   0  0  0  0  0  0  0  0  0  0  0  0
  2  1  1  1
  2  3  1  0
  2  4  1  0
  3  5  1  0
  3  6  1  6
  4  7  1  0
  5  8  1  0
  6  9  1  0
  8  9  1  0
  5 10  1  1
  7 10  1  0
  8 11  1  0
 12 11  1  6
 12 13  1  0
 12 14  1  0
 14 15  1  1
 13 16  1  0
 14 17  1  0
 16 17  1  0
 16 18  1  1
 17 19  1  6
M  END
>  <%Rank>  (1485) 
nan

>  <N_hits>  (1485) 
2

>  <submitter_name>  (1485) 
nan

>  <original SMILES>  (1485) 
nan

>  <∆G_unbound>  (1485) 
0.988283

>  <∆G_bound>  (1485) 
-2.740057

>  <regarded>  (1485) 
5CB5_0_P_δ,mArh-5cms_L_11_L_γ

>  <ref_pdb>  (1485) 
nan

>  <smiles>  (1485) 
CC1OC(CN2CNC3C(N)NCNC32)C(O)C1O

>  <submitter_email>  (1485) 
nan

>  <disregarded>  (1485) 


>  <LE>  (1485) 
-0.196228

>  <submitter_institution>  (1485) 
nan

>  <ref_mols>  (1485) 
5CB5_0_P,mArh-5cms_L_11_L

>  <N_constrained_atoms>  (1485) 
18.0

>  <ref_url>  (1485) 
nan

>  <method>  (1485) 
nan

>  <comRMSD>  (1485) 
nan

>  <N_unconstrained_atoms>  (1485) 
1.0

>  <∆∆G>  (1485) 
-3.72834

>  <runtime>  (1485) 
35.722593

>  <generation_date>  (1485) 
nan

$$$$
6MEA_0_A_δ-5CB5_0_B_γ
     RDKit          3D

 17 19  0  0  0  0  0  0  0  0999 V2000
   -3.7160   15.3640    1.7130 N   0  0  0  0  0  0  0  0  0  0  0  0
   -2.6460   14.6810    1.0110 C   0  0  1  0  0  0  0  0  0  0  0  0
   -2.4610   15.1430   -0.4370 C   0  0  1  0  0  0  0  0  0  0  0  0
   -1.4640   15.0060    1.7410 N   0  0  0  0  0  0  0  0  0  0  0  0
   -1.2550   14.3930   -0.9980 C   0  0  1  0  0  0  0  0  0  0  0  0
   -3.5310   14.8690   -1.4000 N   0  0  0  0  0  0  0  0  0  0  0  0
   -0.2680   14.3760    1.2230 C   0  0  0  0  0  0  0  0  0  0  0  0
   -1.3240   14.7530   -2.5280 C   0  0  1  0  0  0  0  0  0  0  0  0
   -2.8390   15.0530   -2.7000 C   0  0  0  0  0  0  0  0  0  0  0  0
   -0.0810   14.7010   -0.1850 N   0  0  0  0  0  0  0  0  0  0  0  0
   -0.5290   15.9510   -2.8720 O   0  0  0  0  0  0  0  0  0  0  0  0
   -0.7580   13.7520   -3.5650 C   0  0  1  0  0  0  0  0  0  0  0  0
   -1.5170   12.6130   -3.9150 O   0  0  0  0  0  0  0  0  0  0  0  0
   -0.5310   16.0140   -4.3200 C   0  0  2  0  0  0  0  0  0  0  0  0
   -0.4210   14.5730   -4.8130 C   0  0  1  0  0  0  0  0  0  0  0  0
    0.5460   16.9340   -4.8860 C   0  0  0  0  0  0  0  0  0  0  0  0
    0.8560   14.2060   -5.3200 O   0  0  0  0  0  0  0  0  0  0  0  0
  2  1  1  1
  2  3  1  0
  2  4  1  0
  3  5  1  0
  3  6  1  6
  4  7  1  0
  5  8  1  0
  6  9  1  0
  8  9  1  6
  5 10  1  1
  7 10  1  0
  8 11  1  0
  8 12  1  0
 12 13  1  6
 11 14  1  0
 12 15  1  0
 14 15  1  0
 14 16  1  1
 15 17  1  1
M  END
>  <%Rank>  (1486) 
nan

>  <N_hits>  (1486) 
2

>  <submitter_name>  (1486) 
nan

>  <original SMILES>  (1486) 
nan

>  <∆G_unbound>  (1486) 
0.690665

>  <∆G_bound>  (1486) 
-2.978775

>  <regarded>  (1486) 
6MEA_0_A_δ,5CB5_0_B_γ

>  <ref_pdb>  (1486) 
nan

>  <smiles>  (1486) 
CC1OC2(CNC3C(N)NCNC32)C(O)C1O

>  <submitter_email>  (1486) 
nan

>  <disregarded>  (1486) 


>  <LE>  (1486) 
-0.215849

>  <submitter_institution>  (1486) 
nan

>  <ref_mols>  (1486) 
6MEA_0_A,5CB5_0_B

>  <N_constrained_atoms>  (1486) 
17.0

>  <ref_url>  (1486) 
nan

>  <method>  (1486) 
nan

>  <comRMSD>  (1486) 
nan

>  <N_unconstrained_atoms>  (1486) 
0.0

>  <∆∆G>  (1486) 
-3.66944

>  <runtime>  (1486) 
29.232173

>  <generation_date>  (1486) 
nan

$$$$
5L9K_0_A_δ-3VFQ_0_A_δ
     RDKit          3D

 19 22  0  0  0  0  0  0  0  0999 V2000
   -3.4150   16.2870    1.2310 N   0  0  0  0  0  0  0  0  0  0  0  0
   -2.6540   15.9360    0.0760 C   0  0  2  0  0  0  0  0  0  0  0  0
   -3.0860   14.6420   -0.5060 C   0  0  2  0  0  0  0  0  0  0  0  0
   -1.2680   15.8660    0.4190 N   0  0  0  0  0  0  0  0  0  0  0  0
   -2.4500   14.6030   -1.8630 C   0  0  1  0  0  0  0  0  0  0  0  0
   -4.5930   14.5130   -0.7300 C   0  0  1  0  0  0  0  0  0  0  0  0
   -0.5610   15.4710   -0.7870 C   0  0  0  0  0  0  0  0  0  0  0  0
   -3.5020   14.6020   -2.8500 N   0  0  0  0  0  0  0  0  0  0  0  0
   -4.6490   13.9510   -2.1660 C   0  0  0  0  0  0  0  0  0  0  0  0
   -1.4240   15.5910   -1.9520 N   0  0  0  0  0  0  0  0  0  0  0  0
   -5.1030   13.7270    0.5310 C   0  0  2  0  0  0  0  0  0  0  0  0
   -5.5800   15.6850   -0.8000 C   0  0  0  0  0  0  0  0  0  0  0  0
   -6.1520   14.7110    1.0170 C   0  0  1  0  0  0  0  0  0  0  0  0
   -6.8070   15.0890   -0.2120 N   0  0  0  0  0  0  0  0  0  0  0  0
   -4.2110   13.6000    1.7030 N   0  0  0  0  0  0  0  0  0  0  0  0
   -4.4950   14.6310    2.7180 C   0  0  0  0  0  0  0  0  0  0  0  0
   -6.7830   14.2050    2.3270 C   0  0  2  0  0  0  0  0  0  0  0  0
   -7.9490   14.9480    2.7780 N   0  0  0  0  0  0  0  0  0  0  0  0
   -5.7840   14.3970    3.3440 N   0  0  0  0  0  0  0  0  0  0  0  0
  2  1  1  1
  3  2  1  6
  2  4  1  0
  3  5  1  0
  3  6  1  0
  4  7  1  0
  5  8  1  6
  6  9  1  6
  8  9  1  0
  5 10  1  0
  7 10  1  0
  6 11  1  0
  6 12  1  0
 11 13  1  0
 12 14  1  0
 13 14  1  6
 11 15  1  1
 15 16  1  0
 13 17  1  0
 17 18  1  1
 16 19  1  0
 17 19  1  0
M  END
>  <%Rank>  (1487) 
nan

>  <N_hits>  (1487) 
2

>  <submitter_name>  (1487) 
nan

>  <original SMILES>  (1487) 
nan

>  <∆G_unbound>  (1487) 
1.243114

>  <∆G_bound>  (1487) 
0.815962

>  <regarded>  (1487) 
5L9K_0_A_δ,3VFQ_0_A_δ

>  <ref_pdb>  (1487) 
nan

>  <smiles>  (1487) 
NC1NCNC2C1NCC21CNC2NCNC(N)C21

>  <submitter_email>  (1487) 
nan

>  <disregarded>  (1487) 


>  <LE>  (1487) 
-0.022482

>  <submitter_institution>  (1487) 
nan

>  <ref_mols>  (1487) 
5L9K_0_A,3VFQ_0_A

>  <N_constrained_atoms>  (1487) 
19.0

>  <ref_url>  (1487) 
nan

>  <method>  (1487) 
nan

>  <comRMSD>  (1487) 
nan

>  <N_unconstrained_atoms>  (1487) 
0.0

>  <∆∆G>  (1487) 
-0.427152

>  <runtime>  (1487) 
43.300756

>  <generation_date>  (1487) 
nan

$$$$
5L9K_0_B_γ-mArh-6woj_D_0_D_γ
     RDKit          3D

  9  9  0  0  0  0  0  0  0  0999 V2000
   -2.2500   12.9310   -4.7440 O   0  0  0  0  0  0  0  0  0  0  0  0
   -1.6350   14.2080   -4.6040 C   0  0  1  0  0  0  0  0  0  0  0  0
   -1.7410   14.7490   -3.1830 C   0  0  0  0  0  0  0  0  0  0  0  0
   -0.1110   14.1030   -4.7030 C   0  0  0  0  0  0  0  0  0  0  0  0
    0.3160   13.0700   -3.8470 O   0  0  0  0  0  0  0  0  0  0  0  0
    0.4330   13.8060   -5.9610 O   0  0  0  0  0  0  0  0  0  0  0  0
   -0.5810   15.5980   -3.0110 O   0  0  0  0  0  0  0  0  0  0  0  0
    0.2180   15.5100   -4.2070 C   0  0  2  0  0  0  0  0  0  0  0  0
   -0.1230   16.6720   -5.1370 C   0  0  0  0  0  0  0  0  0  0  0  0
  2  1  1  1
  2  3  1  0
  2  4  1  0
  4  5  1  0
  4  6  1  0
  3  7  1  0
  4  8  1  0
  7  8  1  0
  8  9  1  6
M  END
>  <%Rank>  (1488) 
nan

>  <N_hits>  (1488) 
2

>  <submitter_name>  (1488) 
nan

>  <original SMILES>  (1488) 
nan

>  <∆G_unbound>  (1488) 
0.008934

>  <∆G_bound>  (1488) 
-2.136863

>  <regarded>  (1488) 
5L9K_0_B_γ,mArh-6woj_D_0_D_γ

>  <ref_pdb>  (1488) 
nan

>  <smiles>  (1488) 
CC1OCC(O)C1(O)O

>  <submitter_email>  (1488) 
nan

>  <disregarded>  (1488) 


>  <LE>  (1488) 
-0.238422

>  <submitter_institution>  (1488) 
nan

>  <ref_mols>  (1488) 
5L9K_0_B,mArh-6woj_D_0_D

>  <N_constrained_atoms>  (1488) 
9.0

>  <ref_url>  (1488) 
nan

>  <method>  (1488) 
nan

>  <comRMSD>  (1488) 
nan

>  <N_unconstrained_atoms>  (1488) 
0.0

>  <∆∆G>  (1488) 
-2.145796

>  <runtime>  (1488) 
23.553437

>  <generation_date>  (1488) 
nan

$$$$
mArh-5dus_0_A_α-5CB5_0_R_α
     RDKit          3D

  9  9  0  0  0  0  0  0  0  0999 V2000
   -1.9240   22.0710   -7.9070 C   0  0  0  0  0  0  0  0  0  0  0  0
   -3.4160   22.1480   -8.1740 C   0  0  1  0  0  0  0  0  0  0  0  0
   -4.1040   21.3520   -7.2040 O   0  0  0  0  0  0  0  0  0  0  0  0
   -3.9770   23.5650   -8.0440 C   0  0  1  0  0  0  0  0  0  0  0  0
   -4.2850   24.1400   -9.3000 O   0  0  0  0  0  0  0  0  0  0  0  0
   -5.3990   21.9040   -7.0610 C   0  0  2  0  0  0  0  0  0  0  0  0
   -5.2930   23.4020   -7.3000 C   0  0  1  0  0  0  0  0  0  0  0  0
   -5.8440   21.6300   -5.7350 O   0  0  0  0  0  0  0  0  0  0  0  0
   -5.4060   24.2100   -6.1440 O   0  0  0  0  0  0  0  0  0  0  0  0
  2  1  1  1
  2  3  1  0
  2  4  1  0
  4  5  1  6
  3  6  1  0
  4  7  1  0
  6  7  1  0
  6  8  1  1
  7  9  1  1
M  END
>  <%Rank>  (1489) 
nan

>  <N_hits>  (1489) 
2

>  <submitter_name>  (1489) 
nan

>  <original SMILES>  (1489) 
nan

>  <∆G_unbound>  (1489) 
0.037019

>  <∆G_bound>  (1489) 
-6.812889

>  <regarded>  (1489) 
mArh-5dus_0_A_α,5CB5_0_R_α

>  <ref_pdb>  (1489) 
nan

>  <smiles>  (1489) 
CC1OC(O)C(O)C1O

>  <submitter_email>  (1489) 
nan

>  <disregarded>  (1489) 


>  <LE>  (1489) 
-0.761101

>  <submitter_institution>  (1489) 
nan

>  <ref_mols>  (1489) 
mArh-5dus_0_A,5CB5_0_R

>  <N_constrained_atoms>  (1489) 
9.0

>  <ref_url>  (1489) 
nan

>  <method>  (1489) 
nan

>  <comRMSD>  (1489) 
nan

>  <N_unconstrained_atoms>  (1489) 
0.0

>  <∆∆G>  (1489) 
-6.849908

>  <runtime>  (1489) 
24.104387

>  <generation_date>  (1489) 
nan

$$$$
5CB5_0_E_δ-5CMS_0_P_γ
     RDKit          3D

 17 19  0  0  0  0  0  0  0  0999 V2000
   -3.8360   15.5550    1.5940 N   0  0  0  0  0  0  0  0  0  0  0  0
   -2.7710   14.9010    0.8450 C   0  0  1  0  0  0  0  0  0  0  0  0
   -2.6970   15.2890   -0.6460 C   0  0  1  0  0  0  0  0  0  0  0  0
   -1.5450   15.2940    1.5070 N   0  0  0  0  0  0  0  0  0  0  0  0
   -1.4940   14.5310   -1.2000 C   0  0  1  0  0  0  0  0  0  0  0  0
   -3.7920   14.9400   -1.5620 N   0  0  0  0  0  0  0  0  0  0  0  0
   -0.3400   14.7200    0.9170 C   0  0  0  0  0  0  0  0  0  0  0  0
   -1.6270   14.6960   -2.7480 C   0  0  1  0  0  0  0  0  0  0  0  0
   -3.1320   15.0670   -2.8920 C   0  0  0  0  0  0  0  0  0  0  0  0
   -0.2970   14.9910   -0.5080 N   0  0  0  0  0  0  0  0  0  0  0  0
   -0.7440   15.7950   -3.1830 O   0  0  0  0  0  0  0  0  0  0  0  0
   -1.1520   13.5180   -3.6540 C   0  0  1  0  0  0  0  0  0  0  0  0
   -2.0880   12.5590   -4.1020 O   0  0  0  0  0  0  0  0  0  0  0  0
   -0.5360   15.6330   -4.6000 C   0  0  2  0  0  0  0  0  0  0  0  0
   -0.4170   14.1320   -4.8520 C   0  0  1  0  0  0  0  0  0  0  0  0
    0.6420   16.4630   -5.0860 C   0  0  0  0  0  0  0  0  0  0  0  0
    0.9090   13.6120   -4.9420 O   0  0  0  0  0  0  0  0  0  0  0  0
  2  1  1  1
  2  3  1  0
  2  4  1  0
  3  5  1  0
  3  6  1  6
  4  7  1  0
  5  8  1  0
  6  9  1  0
  8  9  1  1
  5 10  1  1
  7 10  1  0
  8 11  1  0
  8 12  1  0
 12 13  1  6
 11 14  1  0
 12 15  1  0
 14 15  1  0
 14 16  1  1
 15 17  1  1
M  END
>  <%Rank>  (1490) 
nan

>  <N_hits>  (1490) 
2

>  <submitter_name>  (1490) 
nan

>  <original SMILES>  (1490) 
nan

>  <∆G_unbound>  (1490) 
0.690665

>  <∆G_bound>  (1490) 
-3.534752

>  <regarded>  (1490) 
5CB5_0_E_δ,5CMS_0_P_γ

>  <ref_pdb>  (1490) 
nan

>  <smiles>  (1490) 
CC1OC2(CNC3C(N)NCNC32)C(O)C1O

>  <submitter_email>  (1490) 
nan

>  <disregarded>  (1490) 


>  <LE>  (1490) 
-0.248554

>  <submitter_institution>  (1490) 
nan

>  <ref_mols>  (1490) 
5CB5_0_E,5CMS_0_P

>  <N_constrained_atoms>  (1490) 
17.0

>  <ref_url>  (1490) 
nan

>  <method>  (1490) 
nan

>  <comRMSD>  (1490) 
nan

>  <N_unconstrained_atoms>  (1490) 
0.0

>  <∆∆G>  (1490) 
-4.225417

>  <runtime>  (1490) 
29.360804

>  <generation_date>  (1490) 
nan

$$$$
5CMS_0_Q_δ-mArh-5cms_F_6_F_γ
     RDKit          3D

 17 19  0  0  0  0  0  0  0  0999 V2000
   -3.9990   15.6300    1.5670 N   0  0  0  0  0  0  0  0  0  0  0  0
   -2.9300   14.9350    0.8680 C   0  0  1  0  0  0  0  0  0  0  0  0
   -2.7120   15.3370   -0.6110 C   0  0  1  0  0  0  0  0  0  0  0  0
   -1.7360   15.2380    1.6230 N   0  0  0  0  0  0  0  0  0  0  0  0
   -1.4990   14.5330   -1.0800 C   0  0  1  0  0  0  0  0  0  0  0  0
   -3.7440   15.0370   -1.6170 N   0  0  0  0  0  0  0  0  0  0  0  0
   -0.5510   14.5520    1.1270 C   0  0  0  0  0  0  0  0  0  0  0  0
   -1.4890   14.7550   -2.6300 C   0  0  1  0  0  0  0  0  0  0  0  0
   -2.9760   15.1160   -2.8950 C   0  0  0  0  0  0  0  0  0  0  0  0
   -0.3490   14.8910   -0.2680 N   0  0  0  0  0  0  0  0  0  0  0  0
   -0.5860   15.8700   -2.9830 O   0  0  0  0  0  0  0  0  0  0  0  0
   -0.9180   13.6370   -3.5550 C   0  0  1  0  0  0  0  0  0  0  0  0
   -1.7660   12.5900   -3.9770 O   0  0  0  0  0  0  0  0  0  0  0  0
   -0.4470   15.8180   -4.4190 C   0  0  2  0  0  0  0  0  0  0  0  0
   -0.3000   14.3400   -4.7690 C   0  0  1  0  0  0  0  0  0  0  0  0
    0.6730   16.7090   -4.9230 C   0  0  0  0  0  0  0  0  0  0  0  0
    1.0370   13.8870   -4.9790 O   0  0  0  0  0  0  0  0  0  0  0  0
  2  1  1  1
  2  3  1  0
  2  4  1  0
  3  5  1  0
  3  6  1  6
  4  7  1  0
  5  8  1  0
  6  9  1  0
  8  9  1  6
  5 10  1  1
  7 10  1  0
  8 11  1  0
  8 12  1  0
 12 13  1  6
 11 14  1  0
 12 15  1  0
 14 15  1  0
 14 16  1  1
 15 17  1  1
M  END
>  <%Rank>  (1491) 
nan

>  <N_hits>  (1491) 
2

>  <submitter_name>  (1491) 
nan

>  <original SMILES>  (1491) 
nan

>  <∆G_unbound>  (1491) 
0.690665

>  <∆G_bound>  (1491) 
-3.416147

>  <regarded>  (1491) 
5CMS_0_Q_δ,mArh-5cms_F_6_F_γ

>  <ref_pdb>  (1491) 
nan

>  <smiles>  (1491) 
CC1OC2(CNC3C(N)NCNC32)C(O)C1O

>  <submitter_email>  (1491) 
nan

>  <disregarded>  (1491) 


>  <LE>  (1491) 
-0.241577

>  <submitter_institution>  (1491) 
nan

>  <ref_mols>  (1491) 
5CMS_0_Q,mArh-5cms_F_6_F

>  <N_constrained_atoms>  (1491) 
17.0

>  <ref_url>  (1491) 
nan

>  <method>  (1491) 
nan

>  <comRMSD>  (1491) 
nan

>  <N_unconstrained_atoms>  (1491) 
0.0

>  <∆∆G>  (1491) 
-4.106811

>  <runtime>  (1491) 
31.979773

>  <generation_date>  (1491) 
nan

$$$$
mArh-2fav_B_0_B_α-5CB5_0_C_α
     RDKit          3D

  9  9  0  0  0  0  0  0  0  0999 V2000
   -1.5120   21.8910   -7.8370 C   0  0  0  0  0  0  0  0  0  0  0  0
   -2.9770   22.0810   -8.2070 C   0  0  1  0  0  0  0  0  0  0  0  0
   -3.7630   21.1970   -7.3790 O   0  0  0  0  0  0  0  0  0  0  0  0
   -3.4870   23.5040   -7.9270 C   0  0  1  0  0  0  0  0  0  0  0  0
   -4.3550   23.9730   -8.9790 O   0  0  0  0  0  0  0  0  0  0  0  0
   -4.9100   21.9430   -6.9750 C   0  0  2  0  0  0  0  0  0  0  0  0
   -4.3160   23.3010   -6.6540 C   0  0  2  0  0  0  0  0  0  0  0  0
   -5.3350   24.2770   -6.4310 O   0  0  0  0  0  0  0  0  0  0  0  0
   -5.5200   21.3990   -5.8030 O   0  0  0  0  0  0  0  0  0  0  0  0
  2  1  1  1
  2  3  1  0
  2  4  1  0
  4  5  1  6
  3  6  1  0
  4  7  1  0
  6  7  1  0
  7  8  1  6
  6  9  1  1
M  END
>  <%Rank>  (1492) 
nan

>  <N_hits>  (1492) 
2

>  <submitter_name>  (1492) 
nan

>  <original SMILES>  (1492) 
nan

>  <∆G_unbound>  (1492) 
0.095569

>  <∆G_bound>  (1492) 
-6.812618

>  <regarded>  (1492) 
mArh-2fav_B_0_B_α,5CB5_0_C_α

>  <ref_pdb>  (1492) 
nan

>  <smiles>  (1492) 
CC1OC(O)C(O)C1O

>  <submitter_email>  (1492) 
nan

>  <disregarded>  (1492) 


>  <LE>  (1492) 
-0.767576

>  <submitter_institution>  (1492) 
nan

>  <ref_mols>  (1492) 
mArh-2fav_B_0_B,5CB5_0_C

>  <N_constrained_atoms>  (1492) 
9.0

>  <ref_url>  (1492) 
nan

>  <method>  (1492) 
nan

>  <comRMSD>  (1492) 
nan

>  <N_unconstrained_atoms>  (1492) 
0.0

>  <∆∆G>  (1492) 
-6.908187

>  <runtime>  (1492) 
23.051948

>  <generation_date>  (1492) 
nan

$$$$
5CMS_0_E_δ-6MEA_0_B_δ
     RDKit          3D

 10 11  0  0  0  0  0  0  0  0999 V2000
   -4.0230   15.5470    1.7320 N   0  0  0  0  0  0  0  0  0  0  0  0
   -2.8000   15.4610    0.9550 C   0  0  2  0  0  0  0  0  0  0  0  0
   -2.9540   14.7270   -0.3570 C   0  0  2  0  0  0  0  0  0  0  0  0
   -1.7560   14.8520    1.7450 N   0  0  0  0  0  0  0  0  0  0  0  0
   -1.6080   14.9770   -1.0000 C   0  0  2  0  0  0  0  0  0  0  0  0
   -3.8760   15.2070   -1.3840 N   0  0  0  0  0  0  0  0  0  0  0  0
   -0.4500   14.8220    1.0840 C   0  0  0  0  0  0  0  0  0  0  0  0
   -1.8320   14.4200   -2.3050 N   0  0  0  0  0  0  0  0  0  0  0  0
   -3.1890   14.8630   -2.6330 C   0  0  0  0  0  0  0  0  0  0  0  0
   -0.5290   14.3420   -0.2890 N   0  0  0  0  0  0  0  0  0  0  0  0
  2  1  1  1
  2  3  1  0
  2  4  1  0
  3  5  1  0
  3  6  1  6
  4  7  1  0
  5  8  1  6
  6  9  1  0
  8  9  1  0
  5 10  1  0
  7 10  1  0
M  END
>  <%Rank>  (1493) 
nan

>  <N_hits>  (1493) 
2

>  <submitter_name>  (1493) 
nan

>  <original SMILES>  (1493) 
nan

>  <∆G_unbound>  (1493) 
0.213408

>  <∆G_bound>  (1493) 
-1.413778

>  <regarded>  (1493) 
5CMS_0_E_δ,6MEA_0_B_δ

>  <ref_pdb>  (1493) 
nan

>  <smiles>  (1493) 
NC1NCNC2NCNC12

>  <submitter_email>  (1493) 
nan

>  <disregarded>  (1493) 


>  <LE>  (1493) 
-0.162719

>  <submitter_institution>  (1493) 
nan

>  <ref_mols>  (1493) 
5CMS_0_E,6MEA_0_B

>  <N_constrained_atoms>  (1493) 
10.0

>  <ref_url>  (1493) 
nan

>  <method>  (1493) 
nan

>  <comRMSD>  (1493) 
nan

>  <N_unconstrained_atoms>  (1493) 
0.0

>  <∆∆G>  (1493) 
-1.627187

>  <runtime>  (1493) 
25.87926

>  <generation_date>  (1493) 
nan

$$$$
3VFQ_0_A_γ-mArh-x0933_0_A_α
     RDKit          3D

 14 15  0  0  0  0  0  0  0  0999 V2000
   -4.9750   11.1410   -2.4920 O   0  0  0  0  0  0  0  0  0  0  0  0
   -4.7280   12.5230   -2.2990 C   0  0  1  0  0  0  0  0  0  0  0  0
   -3.7870   12.7390   -1.1410 C   0  0  0  0  0  0  0  0  0  0  0  0
   -3.9130   13.1490   -3.4270 C   0  0  2  0  0  0  0  0  0  0  0  0
   -2.9250   12.2210   -3.8720 O   0  0  0  0  0  0  0  0  0  0  0  0
   -3.5590   14.2460   -1.2160 C   0  0  1  0  0  0  0  0  0  0  0  0
   -3.2260   14.3660   -2.7660 C   0  0  2  0  0  0  0  0  0  0  0  0
   -3.7160   15.5970   -3.4910 C   0  0  0  0  0  0  0  0  0  0  0  0
   -4.7540   14.8690   -0.5780 N   0  0  0  0  0  0  0  0  0  0  0  0
   -2.3060   14.5810   -0.3800 C   0  0  0  0  0  0  0  0  0  0  0  0
   -4.8960   14.2590    0.7260 C   0  0  2  0  0  0  0  0  0  0  0  0
   -2.7400   15.3190    0.8780 C   0  0  0  0  0  0  0  0  0  0  0  0
   -5.9150   14.9040    1.4620 N   0  0  0  0  0  0  0  0  0  0  0  0
   -3.7690   14.5460    1.5350 N   0  0  0  0  0  0  0  0  0  0  0  0
  2  1  1  6
  2  3  1  0
  2  4  1  0
  4  5  1  1
  6  3  1  6
  4  7  1  0
  6  7  1  0
  7  8  1  6
  6  9  1  0
  6 10  1  0
  9 11  1  0
 10 12  1  0
 11 13  1  1
 11 14  1  0
 12 14  1  0
M  END
>  <%Rank>  (1494) 
nan

>  <N_hits>  (1494) 
2

>  <submitter_name>  (1494) 
nan

>  <original SMILES>  (1494) 
nan

>  <∆G_unbound>  (1494) 
0.275318

>  <∆G_bound>  (1494) 
-2.134155

>  <regarded>  (1494) 
3VFQ_0_A_γ,mArh-x0933_0_A_α

>  <ref_pdb>  (1494) 
nan

>  <smiles>  (1494) 
CC1C(O)C(O)CC12CCNC(N)N2

>  <submitter_email>  (1494) 
nan

>  <disregarded>  (1494) 


>  <LE>  (1494) 
-0.172105

>  <submitter_institution>  (1494) 
nan

>  <ref_mols>  (1494) 
3VFQ_0_A,mArh-x0933_0_A

>  <N_constrained_atoms>  (1494) 
14.0

>  <ref_url>  (1494) 
nan

>  <method>  (1494) 
nan

>  <comRMSD>  (1494) 
nan

>  <N_unconstrained_atoms>  (1494) 
0.0

>  <∆∆G>  (1494) 
-2.409473

>  <runtime>  (1494) 
25.573793

>  <generation_date>  (1494) 
nan

$$$$
mArh-5cb5_K_0_K_γ-5CB5_0_N_γ
     RDKit          3D

  8  8  0  0  0  0  0  0  0  0999 V2000
   -0.4170   12.3660   -3.8370 O   0  0  0  0  0  0  0  0  0  0  0  0
   -0.9080   13.6680   -4.1660 C   0  0  1  0  0  0  0  0  0  0  0  0
   -0.8300   14.6130   -2.9710 C   0  0  0  0  0  0  0  0  0  0  0  0
    0.0240   14.3180   -5.1660 C   0  0  2  0  0  0  0  0  0  0  0  0
    1.3520   13.8380   -5.0160 O   0  0  0  0  0  0  0  0  0  0  0  0
   -0.3010   15.8720   -3.4450 O   0  0  0  0  0  0  0  0  0  0  0  0
   -0.2240   15.8030   -4.8700 C   0  0  1  0  0  0  0  0  0  0  0  0
    0.7890   16.8130   -5.3880 C   0  0  0  0  0  0  0  0  0  0  0  0
  2  1  1  1
  2  3  1  0
  2  4  1  0
  4  5  1  1
  3  6  1  0
  4  7  1  0
  6  7  1  0
  7  8  1  1
M  END
>  <%Rank>  (1495) 
nan

>  <N_hits>  (1495) 
2

>  <submitter_name>  (1495) 
nan

>  <original SMILES>  (1495) 
nan

>  <∆G_unbound>  (1495) 
0.021216

>  <∆G_bound>  (1495) 
-2.82414

>  <regarded>  (1495) 
mArh-5cb5_K_0_K_γ,5CB5_0_N_γ

>  <ref_pdb>  (1495) 
nan

>  <smiles>  (1495) 
CC1OCC(O)C1O

>  <submitter_email>  (1495) 
nan

>  <disregarded>  (1495) 


>  <LE>  (1495) 
-0.35567

>  <submitter_institution>  (1495) 
nan

>  <ref_mols>  (1495) 
mArh-5cb5_K_0_K,5CB5_0_N

>  <N_constrained_atoms>  (1495) 
8.0

>  <ref_url>  (1495) 
nan

>  <method>  (1495) 
nan

>  <comRMSD>  (1495) 
nan

>  <N_unconstrained_atoms>  (1495) 
0.0

>  <∆∆G>  (1495) 
-2.845356

>  <runtime>  (1495) 
18.127672

>  <generation_date>  (1495) 
nan

$$$$
mArh-5cms_M_12_M_α-5CMS_0_F_α
     RDKit          3D

 10 10  0  0  0  0  0  0  0  0999 V2000
   -2.5480   21.3620   -8.0830 C   0  0  0  0  0  0  0  0  0  0  0  0
   -2.4610   22.0980   -9.3910 C   0  0  1  0  0  0  0  0  0  0  0  0
   -3.3040   21.5210  -10.4020 O   0  0  0  0  0  0  0  0  0  0  0  0
   -2.8420   23.5410   -9.2450 C   0  0  1  0  0  0  0  0  0  0  0  0
   -1.6790   24.3360   -9.1610 O   0  0  0  0  0  0  0  0  0  0  0  0
   -4.0600   22.5190  -11.1100 C   0  0  2  0  0  0  0  0  0  0  0  0
   -3.8430   23.8590  -10.4010 C   0  0  0  0  0  0  0  0  0  0  0  0
   -5.4490   22.2470  -11.0610 O   0  0  0  0  0  0  0  0  0  0  0  0
   -3.4870   24.8890  -11.3290 O   0  0  0  0  0  0  0  0  0  0  0  0
   -5.0370   24.2980   -9.8150 O   0  0  0  0  0  0  0  0  0  0  0  0
  2  1  1  1
  2  3  1  0
  2  4  1  0
  4  5  1  6
  3  6  1  0
  4  7  1  0
  6  7  1  0
  6  8  1  1
  7  9  1  0
  7 10  1  0
M  END
>  <%Rank>  (1496) 
nan

>  <N_hits>  (1496) 
2

>  <submitter_name>  (1496) 
nan

>  <original SMILES>  (1496) 
nan

>  <∆G_unbound>  (1496) 
0.03878

>  <∆G_bound>  (1496) 
0.00199

>  <regarded>  (1496) 
mArh-5cms_M_12_M_α,5CMS_0_F_α

>  <ref_pdb>  (1496) 
nan

>  <smiles>  (1496) 
CC1OC(O)C(O)(O)C1O

>  <submitter_email>  (1496) 
nan

>  <disregarded>  (1496) 


>  <LE>  (1496) 
-0.003679

>  <submitter_institution>  (1496) 
nan

>  <ref_mols>  (1496) 
mArh-5cms_M_12_M,5CMS_0_F

>  <N_constrained_atoms>  (1496) 
10.0

>  <ref_url>  (1496) 
nan

>  <method>  (1496) 
nan

>  <comRMSD>  (1496) 
nan

>  <N_unconstrained_atoms>  (1496) 
0.0

>  <∆∆G>  (1496) 
-0.03679

>  <runtime>  (1496) 
23.093112

>  <generation_date>  (1496) 
nan

$$$$
5CMS_0_H_δ-5CMS_0_J_δ
     RDKit          3D

 10 11  0  0  0  0  0  0  0  0999 V2000
   -3.9080   15.2210    1.8790 N   0  0  0  0  0  0  0  0  0  0  0  0
   -2.7010   15.3120    1.0870 C   0  0  2  0  0  0  0  0  0  0  0  0
   -2.9150   14.6560   -0.2740 C   0  0  2  0  0  0  0  0  0  0  0  0
   -1.6190   14.7210    1.8350 N   0  0  0  0  0  0  0  0  0  0  0  0
   -1.5320   14.3640   -0.8780 C   0  0  1  0  0  0  0  0  0  0  0  0
   -3.6460   15.4000   -1.3000 N   0  0  0  0  0  0  0  0  0  0  0  0
   -0.3600   14.5150    1.1380 C   0  0  0  0  0  0  0  0  0  0  0  0
   -1.6200   14.7690   -2.2610 N   0  0  0  0  0  0  0  0  0  0  0  0
   -3.0390   14.9250   -2.5300 C   0  0  0  0  0  0  0  0  0  0  0  0
   -0.4350   14.9990   -0.2100 N   0  0  0  0  0  0  0  0  0  0  0  0
  2  1  1  1
  2  3  1  0
  2  4  1  0
  3  5  1  0
  3  6  1  6
  4  7  1  0
  5  8  1  6
  6  9  1  0
  8  9  1  0
  5 10  1  0
  7 10  1  0
M  END
>  <%Rank>  (1497) 
nan

>  <N_hits>  (1497) 
2

>  <submitter_name>  (1497) 
nan

>  <original SMILES>  (1497) 
nan

>  <∆G_unbound>  (1497) 
0.213408

>  <∆G_bound>  (1497) 
-0.963935

>  <regarded>  (1497) 
5CMS_0_H_δ,5CMS_0_J_δ

>  <ref_pdb>  (1497) 
nan

>  <smiles>  (1497) 
NC1NCNC2NCNC12

>  <submitter_email>  (1497) 
nan

>  <disregarded>  (1497) 


>  <LE>  (1497) 
-0.117734

>  <submitter_institution>  (1497) 
nan

>  <ref_mols>  (1497) 
5CMS_0_H,5CMS_0_J

>  <N_constrained_atoms>  (1497) 
10.0

>  <ref_url>  (1497) 
nan

>  <method>  (1497) 
nan

>  <comRMSD>  (1497) 
nan

>  <N_unconstrained_atoms>  (1497) 
0.0

>  <∆∆G>  (1497) 
-1.177343

>  <runtime>  (1497) 
21.916447

>  <generation_date>  (1497) 
nan

$$$$
5CB5_0_H_δ-5CMS_0_E_δ
     RDKit          3D

 10 11  0  0  0  0  0  0  0  0999 V2000
   -4.0210   15.6660    1.8690 N   0  0  0  0  0  0  0  0  0  0  0  0
   -2.7870   15.5900    1.1050 C   0  0  2  0  0  0  0  0  0  0  0  0
   -3.0120   15.4960   -0.3870 C   0  0  1  0  0  0  0  0  0  0  0  0
   -1.9820   14.5270    1.6660 N   0  0  0  0  0  0  0  0  0  0  0  0
   -1.5970   15.4730   -0.9880 C   0  0  2  0  0  0  0  0  0  0  0  0
   -3.7230   14.3870   -1.0010 N   0  0  0  0  0  0  0  0  0  0  0  0
   -0.6630   14.4520    1.0580 C   0  0  0  0  0  0  0  0  0  0  0  0
   -1.6410   14.3820   -1.9300 N   0  0  0  0  0  0  0  0  0  0  0  0
   -3.0460   14.3490   -2.2820 C   0  0  0  0  0  0  0  0  0  0  0  0
   -0.5020   15.3960   -0.0380 N   0  0  0  0  0  0  0  0  0  0  0  0
  2  1  1  1
  2  3  1  0
  2  4  1  0
  3  5  1  0
  3  6  1  1
  4  7  1  0
  5  8  1  6
  6  9  1  0
  8  9  1  0
  5 10  1  0
  7 10  1  0
M  END
>  <%Rank>  (1498) 
nan

>  <N_hits>  (1498) 
2

>  <submitter_name>  (1498) 
nan

>  <original SMILES>  (1498) 
nan

>  <∆G_unbound>  (1498) 
0.213408

>  <∆G_bound>  (1498) 
-1.514911

>  <regarded>  (1498) 
5CB5_0_H_δ,5CMS_0_E_δ

>  <ref_pdb>  (1498) 
nan

>  <smiles>  (1498) 
NC1NCNC2NCNC12

>  <submitter_email>  (1498) 
nan

>  <disregarded>  (1498) 


>  <LE>  (1498) 
-0.172832

>  <submitter_institution>  (1498) 
nan

>  <ref_mols>  (1498) 
5CB5_0_H,5CMS_0_E

>  <N_constrained_atoms>  (1498) 
10.0

>  <ref_url>  (1498) 
nan

>  <method>  (1498) 
nan

>  <comRMSD>  (1498) 
nan

>  <N_unconstrained_atoms>  (1498) 
0.0

>  <∆∆G>  (1498) 
-1.728319

>  <runtime>  (1498) 
22.059691

>  <generation_date>  (1498) 
nan

$$$$
5CMS_0_Q_δ-5CMS_0_F_γ
     RDKit          3D

 17 19  0  0  0  0  0  0  0  0999 V2000
   -3.9970   15.6270    1.5790 N   0  0  0  0  0  0  0  0  0  0  0  0
   -2.9290   14.9340    0.8730 C   0  0  1  0  0  0  0  0  0  0  0  0
   -2.7190   15.3390   -0.6030 C   0  0  1  0  0  0  0  0  0  0  0  0
   -1.7320   15.2360    1.6260 N   0  0  0  0  0  0  0  0  0  0  0  0
   -1.5090   14.5320   -1.0790 C   0  0  1  0  0  0  0  0  0  0  0  0
   -3.7520   15.0390   -1.6070 N   0  0  0  0  0  0  0  0  0  0  0  0
   -0.5470   14.5520    1.1260 C   0  0  0  0  0  0  0  0  0  0  0  0
   -1.5020   14.7520   -2.6240 C   0  0  1  0  0  0  0  0  0  0  0  0
   -2.9890   15.1190   -2.8860 C   0  0  0  0  0  0  0  0  0  0  0  0
   -0.3530   14.8890   -0.2670 N   0  0  0  0  0  0  0  0  0  0  0  0
   -0.5970   15.8620   -2.9830 O   0  0  0  0  0  0  0  0  0  0  0  0
   -0.9380   13.6280   -3.5510 C   0  0  1  0  0  0  0  0  0  0  0  0
   -1.7920   12.5850   -3.9690 O   0  0  0  0  0  0  0  0  0  0  0  0
   -0.4660   15.8070   -4.4190 C   0  0  2  0  0  0  0  0  0  0  0  0
   -0.3210   14.3280   -4.7670 C   0  0  1  0  0  0  0  0  0  0  0  0
    0.6550   16.6990   -4.9240 C   0  0  0  0  0  0  0  0  0  0  0  0
    1.0150   13.8710   -4.9770 O   0  0  0  0  0  0  0  0  0  0  0  0
  2  1  1  1
  2  3  1  0
  2  4  1  0
  3  5  1  0
  3  6  1  6
  4  7  1  0
  5  8  1  0
  6  9  1  0
  8  9  1  6
  5 10  1  1
  7 10  1  0
  8 11  1  0
  8 12  1  0
 12 13  1  6
 11 14  1  0
 12 15  1  0
 14 15  1  0
 14 16  1  1
 15 17  1  1
M  END
>  <%Rank>  (1499) 
nan

>  <N_hits>  (1499) 
2

>  <submitter_name>  (1499) 
nan

>  <original SMILES>  (1499) 
nan

>  <∆G_unbound>  (1499) 
0.690665

>  <∆G_bound>  (1499) 
-3.417495

>  <regarded>  (1499) 
5CMS_0_Q_δ,5CMS_0_F_γ

>  <ref_pdb>  (1499) 
nan

>  <smiles>  (1499) 
CC1OC2(CNC3C(N)NCNC32)C(O)C1O

>  <submitter_email>  (1499) 
nan

>  <disregarded>  (1499) 


>  <LE>  (1499) 
-0.241656

>  <submitter_institution>  (1499) 
nan

>  <ref_mols>  (1499) 
5CMS_0_Q,5CMS_0_F

>  <N_constrained_atoms>  (1499) 
17.0

>  <ref_url>  (1499) 
nan

>  <method>  (1499) 
nan

>  <comRMSD>  (1499) 
nan

>  <N_unconstrained_atoms>  (1499) 
0.0

>  <∆∆G>  (1499) 
-4.10816

>  <runtime>  (1499) 
24.430271

>  <generation_date>  (1499) 
nan

$$$$
5L9K_0_A_δ-6WOJ_0_C_δ
     RDKit          3D

 10 11  0  0  0  0  0  0  0  0999 V2000
   -4.4410   15.7090    2.0490 N   0  0  0  0  0  0  0  0  0  0  0  0
   -3.2960   15.6580    1.1680 C   0  0  2  0  0  0  0  0  0  0  0  0
   -3.5630   14.9990   -0.1610 C   0  0  2  0  0  0  0  0  0  0  0  0
   -2.2060   14.9600    1.8170 N   0  0  0  0  0  0  0  0  0  0  0  0
   -2.2710   15.2590   -0.9080 C   0  0  2  0  0  0  0  0  0  0  0  0
   -4.5440   15.5290   -1.0980 N   0  0  0  0  0  0  0  0  0  0  0  0
   -0.9550   15.0930    1.0740 C   0  0  0  0  0  0  0  0  0  0  0  0
   -2.6010   14.6870   -2.1810 N   0  0  0  0  0  0  0  0  0  0  0  0
   -3.9920   15.0870   -2.3860 C   0  0  0  0  0  0  0  0  0  0  0  0
   -1.1210   14.6460   -0.2960 N   0  0  0  0  0  0  0  0  0  0  0  0
  2  1  1  1
  2  3  1  0
  2  4  1  0
  3  5  1  0
  3  6  1  6
  4  7  1  0
  5  8  1  6
  6  9  1  0
  8  9  1  0
  5 10  1  0
  7 10  1  0
M  END
>  <%Rank>  (1500) 
nan

>  <N_hits>  (1500) 
2

>  <submitter_name>  (1500) 
nan

>  <original SMILES>  (1500) 
nan

>  <∆G_unbound>  (1500) 
0.213408

>  <∆G_bound>  (1500) 
-1.497474

>  <regarded>  (1500) 
5L9K_0_A_δ,6WOJ_0_C_δ

>  <ref_pdb>  (1500) 
nan

>  <smiles>  (1500) 
NC1NCNC2NCNC12

>  <submitter_email>  (1500) 
nan

>  <disregarded>  (1500) 


>  <LE>  (1500) 
-0.171088

>  <submitter_institution>  (1500) 
nan

>  <ref_mols>  (1500) 
5L9K_0_A,6WOJ_0_C

>  <N_constrained_atoms>  (1500) 
10.0

>  <ref_url>  (1500) 
nan

>  <method>  (1500) 
nan

>  <comRMSD>  (1500) 
nan

>  <N_unconstrained_atoms>  (1500) 
0.0

>  <∆∆G>  (1500) 
-1.710882

>  <runtime>  (1500) 
21.488141

>  <generation_date>  (1500) 
nan

$$$$
5LW0_0_A_δ-6WOJ_0_C_δ
     RDKit          3D

 10 11  0  0  0  0  0  0  0  0999 V2000
   -4.2810   15.4020    1.8330 N   0  0  0  0  0  0  0  0  0  0  0  0
   -3.0450   15.2700    1.0910 C   0  0  2  0  0  0  0  0  0  0  0  0
   -3.2380   14.5610   -0.2430 C   0  0  2  0  0  0  0  0  0  0  0  0
   -2.1390   14.5590    1.9430 N   0  0  0  0  0  0  0  0  0  0  0  0
   -1.8290   14.1850   -0.7410 C   0  0  1  0  0  0  0  0  0  0  0  0
   -3.8720   15.2780   -1.3470 N   0  0  0  0  0  0  0  0  0  0  0  0
   -0.8120   14.3080    1.3800 C   0  0  0  0  0  0  0  0  0  0  0  0
   -1.7860   14.6050   -2.1220 N   0  0  0  0  0  0  0  0  0  0  0  0
   -3.1740   14.7610   -2.5100 C   0  0  0  0  0  0  0  0  0  0  0  0
   -0.7550   14.7640    0.0150 N   0  0  0  0  0  0  0  0  0  0  0  0
  2  1  1  1
  2  3  1  0
  2  4  1  0
  3  5  1  0
  3  6  1  6
  4  7  1  0
  5  8  1  6
  6  9  1  0
  8  9  1  0
  5 10  1  0
  7 10  1  0
M  END
>  <%Rank>  (1501) 
nan

>  <N_hits>  (1501) 
2

>  <submitter_name>  (1501) 
nan

>  <original SMILES>  (1501) 
nan

>  <∆G_unbound>  (1501) 
0.213408

>  <∆G_bound>  (1501) 
-1.272965

>  <regarded>  (1501) 
5LW0_0_A_δ,6WOJ_0_C_δ

>  <ref_pdb>  (1501) 
nan

>  <smiles>  (1501) 
NC1NCNC2NCNC12

>  <submitter_email>  (1501) 
nan

>  <disregarded>  (1501) 


>  <LE>  (1501) 
-0.148637

>  <submitter_institution>  (1501) 
nan

>  <ref_mols>  (1501) 
5LW0_0_A,6WOJ_0_C

>  <N_constrained_atoms>  (1501) 
10.0

>  <ref_url>  (1501) 
nan

>  <method>  (1501) 
nan

>  <comRMSD>  (1501) 
nan

>  <N_unconstrained_atoms>  (1501) 
0.0

>  <∆∆G>  (1501) 
-1.486374

>  <runtime>  (1501) 
22.347285

>  <generation_date>  (1501) 
nan

$$$$
5CB5_0_I_α-mArh-5cb5_Q_0_Q_α
     RDKit          3D

  9  9  0  0  0  0  0  0  0  0999 V2000
   -1.9710   21.8900   -8.1680 C   0  0  0  0  0  0  0  0  0  0  0  0
   -3.3760   21.9110   -8.7510 C   0  0  1  0  0  0  0  0  0  0  0  0
   -4.1460   20.8910   -8.0940 O   0  0  0  0  0  0  0  0  0  0  0  0
   -4.0800   23.2580   -8.5570 C   0  0  1  0  0  0  0  0  0  0  0  0
   -4.4460   23.9070   -9.7700 O   0  0  0  0  0  0  0  0  0  0  0  0
   -5.3520   21.4290   -7.5820 C   0  0  2  0  0  0  0  0  0  0  0  0
   -5.3500   22.9430   -7.7790 C   0  0  1  0  0  0  0  0  0  0  0  0
   -5.3880   21.1700   -6.1820 O   0  0  0  0  0  0  0  0  0  0  0  0
   -5.4230   23.6900   -6.5670 O   0  0  0  0  0  0  0  0  0  0  0  0
  2  1  1  1
  2  3  1  0
  2  4  1  0
  4  5  1  6
  3  6  1  0
  4  7  1  0
  6  7  1  0
  6  8  1  1
  7  9  1  1
M  END
>  <%Rank>  (1502) 
nan

>  <N_hits>  (1502) 
2

>  <submitter_name>  (1502) 
nan

>  <original SMILES>  (1502) 
nan

>  <∆G_unbound>  (1502) 
0.037019

>  <∆G_bound>  (1502) 
-6.176861

>  <regarded>  (1502) 
5CB5_0_I_α,mArh-5cb5_Q_0_Q_α

>  <ref_pdb>  (1502) 
nan

>  <smiles>  (1502) 
CC1OC(O)C(O)C1O

>  <submitter_email>  (1502) 
nan

>  <disregarded>  (1502) 


>  <LE>  (1502) 
-0.690431

>  <submitter_institution>  (1502) 
nan

>  <ref_mols>  (1502) 
5CB5_0_I,mArh-5cb5_Q_0_Q

>  <N_constrained_atoms>  (1502) 
9.0

>  <ref_url>  (1502) 
nan

>  <method>  (1502) 
nan

>  <comRMSD>  (1502) 
nan

>  <N_unconstrained_atoms>  (1502) 
0.0

>  <∆∆G>  (1502) 
-6.21388

>  <runtime>  (1502) 
24.984064

>  <generation_date>  (1502) 
nan

$$$$
5CB5_0_L_δ-5CB5_0_A_δ
     RDKit          3D

 10 11  0  0  0  0  0  0  0  0999 V2000
   -3.7160   15.4320    1.7170 N   0  0  0  0  0  0  0  0  0  0  0  0
   -2.4800   15.3870    0.9550 C   0  0  2  0  0  0  0  0  0  0  0  0
   -2.6710   14.8590   -0.4450 C   0  0  2  0  0  0  0  0  0  0  0  0
   -1.4850   14.6300    1.6700 N   0  0  0  0  0  0  0  0  0  0  0  0
   -1.3330   15.1710   -1.0560 C   0  0  2  0  0  0  0  0  0  0  0  0
   -3.5970   15.5020   -1.3720 N   0  0  0  0  0  0  0  0  0  0  0  0
   -0.1970   14.4980    0.9870 C   0  0  0  0  0  0  0  0  0  0  0  0
   -1.5780   14.8330   -2.4330 N   0  0  0  0  0  0  0  0  0  0  0  0
   -2.9530   15.2800   -2.6710 C   0  0  0  0  0  0  0  0  0  0  0  0
   -0.2740   14.3960   -0.4710 N   0  0  0  0  0  0  0  0  0  0  0  0
  2  1  1  1
  2  3  1  0
  2  4  1  0
  3  5  1  0
  3  6  1  6
  4  7  1  0
  5  8  1  6
  6  9  1  0
  8  9  1  0
  5 10  1  0
  7 10  1  0
M  END
>  <%Rank>  (1503) 
nan

>  <N_hits>  (1503) 
2

>  <submitter_name>  (1503) 
nan

>  <original SMILES>  (1503) 
nan

>  <∆G_unbound>  (1503) 
0.213408

>  <∆G_bound>  (1503) 
-1.481645

>  <regarded>  (1503) 
5CB5_0_L_δ,5CB5_0_A_δ

>  <ref_pdb>  (1503) 
nan

>  <smiles>  (1503) 
NC1NCNC2NCNC12

>  <submitter_email>  (1503) 
nan

>  <disregarded>  (1503) 


>  <LE>  (1503) 
-0.169505

>  <submitter_institution>  (1503) 
nan

>  <ref_mols>  (1503) 
5CB5_0_L,5CB5_0_A

>  <N_constrained_atoms>  (1503) 
10.0

>  <ref_url>  (1503) 
nan

>  <method>  (1503) 
nan

>  <comRMSD>  (1503) 
nan

>  <N_unconstrained_atoms>  (1503) 
0.0

>  <∆∆G>  (1503) 
-1.695053

>  <runtime>  (1503) 
26.770448

>  <generation_date>  (1503) 
nan

$$$$
2BFQ_1_A_δ-3Q6Z_0_A_δ
     RDKit          3D

 15 17  0  0  0  0  0  0  0  0999 V2000
   -3.9650   15.6070    2.2190 N   0  0  0  0  0  0  0  0  0  0  0  0
   -3.0750   14.9240    1.3080 C   0  0  1  0  0  0  0  0  0  0  0  0
   -3.1580   15.5670   -0.0370 C   0  0  1  0  0  0  0  0  0  0  0  0
   -1.7280   15.0090    1.8570 N   0  0  0  0  0  0  0  0  0  0  0  0
   -1.9590   15.0280   -0.7900 C   0  0  1  0  0  0  0  0  0  0  0  0
   -4.2890   15.4610   -0.9670 N   0  0  0  0  0  0  0  0  0  0  0  0
   -0.5600   14.7730    1.0110 C   0  0  0  0  0  0  0  0  0  0  0  0
   -5.4300   14.6450   -0.4950 N   0  0  0  0  0  0  0  0  0  0  0  0
   -2.2120   15.4910   -2.1190 N   0  0  0  0  0  0  0  0  0  0  0  0
   -3.5760   14.9920   -2.1800 C   0  0  1  0  0  0  0  0  0  0  0  0
   -0.7050   15.4470   -0.2520 N   0  0  0  0  0  0  0  0  0  0  0  0
   -3.3890   13.5700   -2.0770 N   0  0  0  0  0  0  0  0  0  0  0  0
   -4.3990   15.1140   -3.4550 C   0  0  0  0  0  0  0  0  0  0  0  0
   -4.6350   13.7560   -3.9400 N   0  0  0  0  0  0  0  0  0  0  0  0
   -3.4510   13.1230   -3.4380 C   0  0  0  0  0  0  0  0  0  0  0  0
  2  1  1  1
  2  3  1  0
  2  4  1  0
  3  5  1  0
  3  6  1  6
  4  7  1  0
  6  8  1  0
  5  9  1  6
 10  6  1  0
  9 10  1  0
  5 11  1  0
  7 11  1  0
 10 12  1  0
 10 13  1  6
 13 14  1  0
 12 15  1  0
 14 15  1  0
M  END
>  <%Rank>  (1504) 
nan

>  <N_hits>  (1504) 
2

>  <submitter_name>  (1504) 
nan

>  <original SMILES>  (1504) 
nan

>  <∆G_unbound>  (1504) 
0.62718

>  <∆G_bound>  (1504) 
-0.20778

>  <regarded>  (1504) 
2BFQ_1_A_δ,3Q6Z_0_A_δ

>  <ref_pdb>  (1504) 
nan

>  <smiles>  (1504) 
NC1NCNC2NC3(CNCN3)N(N)C12

>  <submitter_email>  (1504) 
nan

>  <disregarded>  (1504) 


>  <LE>  (1504) 
-0.055664

>  <submitter_institution>  (1504) 
nan

>  <ref_mols>  (1504) 
2BFQ_1_A,3Q6Z_0_A

>  <N_constrained_atoms>  (1504) 
15.0

>  <ref_url>  (1504) 
nan

>  <method>  (1504) 
nan

>  <comRMSD>  (1504) 
nan

>  <N_unconstrained_atoms>  (1504) 
0.0

>  <∆∆G>  (1504) 
-0.834961

>  <runtime>  (1504) 
23.50085

>  <generation_date>  (1504) 
nan

$$$$
5DUS_0_A_γ-6WOJ_0_B_γ
     RDKit          3D

  8  8  0  0  0  0  0  0  0  0999 V2000
   -1.1090   12.4410   -4.2770 O   0  0  0  0  0  0  0  0  0  0  0  0
   -1.1590   13.8480   -4.1160 C   0  0  1  0  0  0  0  0  0  0  0  0
   -0.6470   14.3310   -2.7610 C   0  0  0  0  0  0  0  0  0  0  0  0
   -0.1270   14.4390   -5.0240 C   0  0  2  0  0  0  0  0  0  0  0  0
    1.0560   13.6490   -5.0120 O   0  0  0  0  0  0  0  0  0  0  0  0
    0.1220   15.5350   -3.0150 O   0  0  0  0  0  0  0  0  0  0  0  0
   -0.0770   15.8230   -4.4100 C   0  0  1  0  0  0  0  0  0  0  0  0
    0.9250   16.8160   -4.9540 C   0  0  0  0  0  0  0  0  0  0  0  0
  2  1  1  1
  2  3  1  0
  2  4  1  0
  4  5  1  1
  3  6  1  0
  4  7  1  0
  6  7  1  0
  7  8  1  6
M  END
>  <%Rank>  (1505) 
nan

>  <N_hits>  (1505) 
2

>  <submitter_name>  (1505) 
nan

>  <original SMILES>  (1505) 
nan

>  <∆G_unbound>  (1505) 
0.021216

>  <∆G_bound>  (1505) 
-2.525918

>  <regarded>  (1505) 
5DUS_0_A_γ,6WOJ_0_B_γ

>  <ref_pdb>  (1505) 
nan

>  <smiles>  (1505) 
CC1OCC(O)C1O

>  <submitter_email>  (1505) 
nan

>  <disregarded>  (1505) 


>  <LE>  (1505) 
-0.318392

>  <submitter_institution>  (1505) 
nan

>  <ref_mols>  (1505) 
5DUS_0_A,6WOJ_0_B

>  <N_constrained_atoms>  (1505) 
8.0

>  <ref_url>  (1505) 
nan

>  <method>  (1505) 
nan

>  <comRMSD>  (1505) 
nan

>  <N_unconstrained_atoms>  (1505) 
0.0

>  <∆∆G>  (1505) 
-2.547134

>  <runtime>  (1505) 
18.856501

>  <generation_date>  (1505) 
nan

$$$$
mArh-5cb3_0_A_γ-5L9K_0_A_γ
     RDKit          3D

  8  8  0  0  0  0  0  0  0  0999 V2000
   -0.7940   12.3890   -4.0270 O   0  0  0  0  0  0  0  0  0  0  0  0
   -1.0110   13.7890   -4.1520 C   0  0  1  0  0  0  0  0  0  0  0  0
   -0.7240   14.5450   -2.8560 C   0  0  0  0  0  0  0  0  0  0  0  0
    0.0310   14.3790   -5.0670 C   0  0  2  0  0  0  0  0  0  0  0  0
    1.2920   13.7580   -4.8570 O   0  0  0  0  0  0  0  0  0  0  0  0
   -0.0530   15.7740   -3.2260 O   0  0  0  0  0  0  0  0  0  0  0  0
   -0.1230   15.8390   -4.6580 C   0  0  1  0  0  0  0  0  0  0  0  0
    0.8480   16.8570   -5.2280 C   0  0  0  0  0  0  0  0  0  0  0  0
  2  1  1  1
  2  3  1  0
  2  4  1  0
  4  5  1  1
  3  6  1  0
  4  7  1  0
  6  7  1  0
  7  8  1  6
M  END
>  <%Rank>  (1506) 
nan

>  <N_hits>  (1506) 
2

>  <submitter_name>  (1506) 
nan

>  <original SMILES>  (1506) 
nan

>  <∆G_unbound>  (1506) 
0.021216

>  <∆G_bound>  (1506) 
-2.806505

>  <regarded>  (1506) 
mArh-5cb3_0_A_γ,5L9K_0_A_γ

>  <ref_pdb>  (1506) 
nan

>  <smiles>  (1506) 
CC1OCC(O)C1O

>  <submitter_email>  (1506) 
nan

>  <disregarded>  (1506) 


>  <LE>  (1506) 
-0.353465

>  <submitter_institution>  (1506) 
nan

>  <ref_mols>  (1506) 
mArh-5cb3_0_A,5L9K_0_A

>  <N_constrained_atoms>  (1506) 
8.0

>  <ref_url>  (1506) 
nan

>  <method>  (1506) 
nan

>  <comRMSD>  (1506) 
nan

>  <N_unconstrained_atoms>  (1506) 
0.0

>  <∆∆G>  (1506) 
-2.827721

>  <runtime>  (1506) 
18.527842

>  <generation_date>  (1506) 
nan

$$$$
5CMS_0_E_γ-mArh-6woj_D_0_D_γ
     RDKit          3D

  8  8  0  0  0  0  0  0  0  0999 V2000
   -0.6970   11.9880   -4.1580 O   0  0  0  0  0  0  0  0  0  0  0  0
   -0.9970   13.3790   -4.2770 C   0  0  1  0  0  0  0  0  0  0  0  0
   -0.7690   14.1370   -2.9710 C   0  0  0  0  0  0  0  0  0  0  0  0
   -0.0020   14.0400   -5.1990 C   0  0  2  0  0  0  0  0  0  0  0  0
    1.2840   13.4360   -5.0860 O   0  0  0  0  0  0  0  0  0  0  0  0
   -0.1350   15.3910   -3.3010 O   0  0  0  0  0  0  0  0  0  0  0  0
   -0.1620   15.4860   -4.7300 C   0  0  1  0  0  0  0  0  0  0  0  0
    0.8290   16.5250   -5.2120 C   0  0  0  0  0  0  0  0  0  0  0  0
  2  1  1  1
  2  3  1  0
  2  4  1  0
  4  5  1  1
  3  6  1  0
  4  7  1  0
  6  7  1  0
  7  8  1  6
M  END
>  <%Rank>  (1507) 
nan

>  <N_hits>  (1507) 
2

>  <submitter_name>  (1507) 
nan

>  <original SMILES>  (1507) 
nan

>  <∆G_unbound>  (1507) 
0.021216

>  <∆G_bound>  (1507) 
-2.847636

>  <regarded>  (1507) 
5CMS_0_E_γ,mArh-6woj_D_0_D_γ

>  <ref_pdb>  (1507) 
nan

>  <smiles>  (1507) 
CC1OCC(O)C1O

>  <submitter_email>  (1507) 
nan

>  <disregarded>  (1507) 


>  <LE>  (1507) 
-0.358607

>  <submitter_institution>  (1507) 
nan

>  <ref_mols>  (1507) 
5CMS_0_E,mArh-6woj_D_0_D

>  <N_constrained_atoms>  (1507) 
8.0

>  <ref_url>  (1507) 
nan

>  <method>  (1507) 
nan

>  <comRMSD>  (1507) 
nan

>  <N_unconstrained_atoms>  (1507) 
0.0

>  <∆∆G>  (1507) 
-2.868852

>  <runtime>  (1507) 
18.375506

>  <generation_date>  (1507) 
nan

$$$$
5CMS_0_N_γ-5CMS_0_D_β
     RDKit          3D

  9  9  0  0  0  0  0  0  0  0999 V2000
    1.1770   12.3850   -3.7650 O   0  0  0  0  0  0  0  0  0  0  0  0
    0.2780   13.4290   -4.0870 C   0  0  0  0  0  0  0  0  0  0  0  0
    0.1570   14.4950   -2.9920 C   0  0  0  0  0  0  0  0  0  0  0  0
   -0.9640   12.8360   -4.4210 O   0  0  0  0  0  0  0  0  0  0  0  0
    0.8750   14.1990   -5.2680 C   0  0  1  0  0  0  0  0  0  0  0  0
    0.0740   13.8420   -6.3790 O   0  0  0  0  0  0  0  0  0  0  0  0
   -0.0430   15.7320   -3.6700 O   0  0  0  0  0  0  0  0  0  0  0  0
    0.8760   15.6780   -4.7650 C   0  0  2  0  0  0  0  0  0  0  0  0
    0.5590   16.8690   -5.6620 C   0  0  0  0  0  0  0  0  0  0  0  0
  2  1  1  0
  2  3  1  0
  2  4  1  0
  2  5  1  0
  5  6  1  6
  3  7  1  0
  5  8  1  0
  7  8  1  0
  8  9  1  6
M  END
>  <%Rank>  (1508) 
nan

>  <N_hits>  (1508) 
2

>  <submitter_name>  (1508) 
nan

>  <original SMILES>  (1508) 
nan

>  <∆G_unbound>  (1508) 
0.013016

>  <∆G_bound>  (1508) 
-3.117161

>  <regarded>  (1508) 
5CMS_0_N_γ,5CMS_0_D_β

>  <ref_pdb>  (1508) 
nan

>  <smiles>  (1508) 
CC1OCC(O)(O)C1O

>  <submitter_email>  (1508) 
nan

>  <disregarded>  (1508) 


>  <LE>  (1508) 
-0.347797

>  <submitter_institution>  (1508) 
nan

>  <ref_mols>  (1508) 
5CMS_0_N,5CMS_0_D

>  <N_constrained_atoms>  (1508) 
9.0

>  <ref_url>  (1508) 
nan

>  <method>  (1508) 
nan

>  <comRMSD>  (1508) 
nan

>  <N_unconstrained_atoms>  (1508) 
0.0

>  <∆∆G>  (1508) 
-3.130177

>  <runtime>  (1508) 
19.072106

>  <generation_date>  (1508) 
nan

$$$$
6MEA_0_B_δ-5CB3_0_A_γ
     RDKit          3D

 17 19  0  0  0  0  0  0  0  0999 V2000
   -3.6150   15.2130    1.7650 N   0  0  0  0  0  0  0  0  0  0  0  0
   -2.5710   14.6050    0.9660 C   0  0  1  0  0  0  0  0  0  0  0  0
   -2.4620   15.2960   -0.4000 C   0  0  1  0  0  0  0  0  0  0  0  0
   -1.3860   14.7790    1.7450 N   0  0  0  0  0  0  0  0  0  0  0  0
   -1.0450   15.0880   -0.9770 C   0  0  2  0  0  0  0  0  0  0  0  0
   -3.4170   14.8070   -1.4070 N   0  0  0  0  0  0  0  0  0  0  0  0
   -0.1860   14.2490    1.1430 C   0  0  0  0  0  0  0  0  0  0  0  0
   -1.2700   14.9420   -2.5240 C   0  0  1  0  0  0  0  0  0  0  0  0
   -2.7790   15.1770   -2.6780 C   0  0  0  0  0  0  0  0  0  0  0  0
   -0.3640   14.0030   -0.2740 N   0  0  0  0  0  0  0  0  0  0  0  0
   -0.5260   16.0640   -3.1170 O   0  0  0  0  0  0  0  0  0  0  0  0
   -0.7640   13.7300   -3.3610 C   0  0  1  0  0  0  0  0  0  0  0  0
   -1.6880   12.7090   -3.6900 O   0  0  0  0  0  0  0  0  0  0  0  0
   -0.3780   15.8030   -4.5190 C   0  0  2  0  0  0  0  0  0  0  0  0
   -0.1410   14.3000   -4.6460 C   0  0  1  0  0  0  0  0  0  0  0  0
    0.7040   16.6790   -5.1240 C   0  0  0  0  0  0  0  0  0  0  0  0
    1.2220   13.9100   -4.7670 O   0  0  0  0  0  0  0  0  0  0  0  0
  2  1  1  1
  2  3  1  0
  2  4  1  0
  3  5  1  0
  3  6  1  6
  4  7  1  0
  5  8  1  0
  6  9  1  0
  8  9  1  1
  5 10  1  1
  7 10  1  0
  8 11  1  0
  8 12  1  0
 12 13  1  6
 11 14  1  0
 12 15  1  0
 14 15  1  0
 14 16  1  1
 15 17  1  1
M  END
>  <%Rank>  (1509) 
nan

>  <N_hits>  (1509) 
2

>  <submitter_name>  (1509) 
nan

>  <original SMILES>  (1509) 
nan

>  <∆G_unbound>  (1509) 
0.690665

>  <∆G_bound>  (1509) 
-3.45256

>  <regarded>  (1509) 
6MEA_0_B_δ,5CB3_0_A_γ

>  <ref_pdb>  (1509) 
nan

>  <smiles>  (1509) 
CC1OC2(CNC3C(N)NCNC32)C(O)C1O

>  <submitter_email>  (1509) 
nan

>  <disregarded>  (1509) 


>  <LE>  (1509) 
-0.243719

>  <submitter_institution>  (1509) 
nan

>  <ref_mols>  (1509) 
6MEA_0_B,5CB3_0_A

>  <N_constrained_atoms>  (1509) 
17.0

>  <ref_url>  (1509) 
nan

>  <method>  (1509) 
nan

>  <comRMSD>  (1509) 
nan

>  <N_unconstrained_atoms>  (1509) 
0.0

>  <∆∆G>  (1509) 
-4.143225

>  <runtime>  (1509) 
24.805302

>  <generation_date>  (1509) 
nan

$$$$
6WOJ_0_B_α-mArh-4iqy_B_0_B_α
     RDKit          3D

 10 10  0  0  0  0  0  0  0  0999 V2000
   -2.1580   21.9160   -7.7950 C   0  0  0  0  0  0  0  0  0  0  0  0
   -3.6120   21.8770   -8.3170 C   0  0  1  0  0  0  0  0  0  0  0  0
   -4.6140   21.0690   -7.5700 N   0  0  0  0  0  0  0  0  0  0  0  0
   -4.3700   23.1870   -8.1680 C   0  0  2  0  0  0  0  0  0  0  0  0
   -3.8000   24.2780   -8.7970 O   0  0  0  0  0  0  0  0  0  0  0  0
   -5.8000   20.9310   -8.4000 O   0  0  0  0  0  0  0  0  0  0  0  0
   -5.1250   21.8840   -6.4740 C   0  0  2  0  0  0  0  0  0  0  0  0
   -4.4780   23.2590   -6.6500 C   0  0  2  0  0  0  0  0  0  0  0  0
   -4.9350   21.2600   -5.2360 O   0  0  0  0  0  0  0  0  0  0  0  0
   -5.3230   24.3190   -6.1940 O   0  0  0  0  0  0  0  0  0  0  0  0
  2  1  1  1
  2  3  1  0
  2  4  1  0
  4  5  1  1
  3  6  1  0
  3  7  1  0
  4  8  1  0
  7  8  1  0
  7  9  1  1
  8 10  1  6
M  END
>  <%Rank>  (1510) 
nan

>  <N_hits>  (1510) 
2

>  <submitter_name>  (1510) 
nan

>  <original SMILES>  (1510) 
nan

>  <∆G_unbound>  (1510) 
0.073315

>  <∆G_bound>  (1510) 
-4.67709

>  <regarded>  (1510) 
6WOJ_0_B_α,mArh-4iqy_B_0_B_α

>  <ref_pdb>  (1510) 
nan

>  <smiles>  (1510) 
CC1C(O)C(O)C(O)N1O

>  <submitter_email>  (1510) 
nan

>  <disregarded>  (1510) 


>  <LE>  (1510) 
-0.47504

>  <submitter_institution>  (1510) 
nan

>  <ref_mols>  (1510) 
6WOJ_0_B,mArh-4iqy_B_0_B

>  <N_constrained_atoms>  (1510) 
10.0

>  <ref_url>  (1510) 
nan

>  <method>  (1510) 
nan

>  <comRMSD>  (1510) 
nan

>  <N_unconstrained_atoms>  (1510) 
0.0

>  <∆∆G>  (1510) 
-4.750405

>  <runtime>  (1510) 
20.509812

>  <generation_date>  (1510) 
nan

$$$$
mArh-5cb5_M_1_M_γ-mArh-5cb5_N_0_N_γ
     RDKit          3D

  8  8  0  0  0  0  0  0  0  0999 V2000
   -0.3700   12.4700   -3.8140 O   0  0  0  0  0  0  0  0  0  0  0  0
   -0.9220   13.7660   -4.0490 C   0  0  1  0  0  0  0  0  0  0  0  0
   -0.6850   14.7070   -2.8750 C   0  0  0  0  0  0  0  0  0  0  0  0
   -0.1630   14.4330   -5.1730 C   0  0  2  0  0  0  0  0  0  0  0  0
    1.1810   13.9780   -5.2400 O   0  0  0  0  0  0  0  0  0  0  0  0
   -0.2240   15.9660   -3.4140 O   0  0  0  0  0  0  0  0  0  0  0  0
   -0.3650   15.9090   -4.8410 C   0  0  1  0  0  0  0  0  0  0  0  0
    0.5700   16.9250   -5.4880 C   0  0  0  0  0  0  0  0  0  0  0  0
  2  1  1  1
  2  3  1  0
  2  4  1  0
  4  5  1  1
  3  6  1  0
  4  7  1  0
  6  7  1  0
  7  8  1  6
M  END
>  <%Rank>  (1511) 
nan

>  <N_hits>  (1511) 
2

>  <submitter_name>  (1511) 
nan

>  <original SMILES>  (1511) 
nan

>  <∆G_unbound>  (1511) 
0.021216

>  <∆G_bound>  (1511) 
-2.617019

>  <regarded>  (1511) 
mArh-5cb5_M_1_M_γ,mArh-5cb5_N_0_N_γ

>  <ref_pdb>  (1511) 
nan

>  <smiles>  (1511) 
CC1OCC(O)C1O

>  <submitter_email>  (1511) 
nan

>  <disregarded>  (1511) 


>  <LE>  (1511) 
-0.329779

>  <submitter_institution>  (1511) 
nan

>  <ref_mols>  (1511) 
mArh-5cb5_M_1_M,mArh-5cb5_N_0_N

>  <N_constrained_atoms>  (1511) 
8.0

>  <ref_url>  (1511) 
nan

>  <method>  (1511) 
nan

>  <comRMSD>  (1511) 
nan

>  <N_unconstrained_atoms>  (1511) 
0.0

>  <∆∆G>  (1511) 
-2.638236

>  <runtime>  (1511) 
18.593321

>  <generation_date>  (1511) 
nan

$$$$
5CMS_0_D_γ-5CB5_0_E_γ
     RDKit          3D

 17 19  0  0  0  0  0  0  0  0999 V2000
   -3.9230   15.6390    1.6390 N   0  0  0  0  0  0  0  0  0  0  0  0
   -2.8570   14.9640    0.9120 C   0  0  1  0  0  0  0  0  0  0  0  0
   -2.6880   15.4060   -0.5540 C   0  0  1  0  0  0  0  0  0  0  0  0
   -1.6460   15.2610    1.6400 N   0  0  0  0  0  0  0  0  0  0  0  0
   -1.4700   14.6420   -1.0730 C   0  0  1  0  0  0  0  0  0  0  0  0
   -3.7480   15.0980   -1.5260 N   0  0  0  0  0  0  0  0  0  0  0  0
   -0.4590   14.6180    1.0930 C   0  0  0  0  0  0  0  0  0  0  0  0
   -1.5240   14.8840   -2.6120 C   0  0  1  0  0  0  0  0  0  0  0  0
   -3.0370   15.1450   -2.8330 C   0  0  0  0  0  0  0  0  0  0  0  0
   -0.3000   15.0110   -0.2910 N   0  0  0  0  0  0  0  0  0  0  0  0
   -0.7420   16.0760   -2.9780 O   0  0  0  0  0  0  0  0  0  0  0  0
   -0.9090   13.8120   -3.5570 C   0  0  1  0  0  0  0  0  0  0  0  0
   -1.6830   12.7010   -3.9610 O   0  0  0  0  0  0  0  0  0  0  0  0
   -0.5800   16.0330   -4.4100 C   0  0  2  0  0  0  0  0  0  0  0  0
   -0.3780   14.5590   -4.7800 C   0  0  1  0  0  0  0  0  0  0  0  0
    0.5350   16.9540   -4.8770 C   0  0  0  0  0  0  0  0  0  0  0  0
    0.9650   14.1700   -5.0420 O   0  0  0  0  0  0  0  0  0  0  0  0
  2  1  1  1
  2  3  1  0
  2  4  1  0
  3  5  1  0
  3  6  1  6
  4  7  1  0
  5  8  1  0
  6  9  1  0
  8  9  1  6
  5 10  1  1
  7 10  1  0
  8 11  1  0
  8 12  1  0
 12 13  1  6
 11 14  1  0
 12 15  1  0
 14 15  1  0
 14 16  1  1
 15 17  1  1
M  END
>  <%Rank>  (1512) 
nan

>  <N_hits>  (1512) 
2

>  <submitter_name>  (1512) 
nan

>  <original SMILES>  (1512) 
nan

>  <∆G_unbound>  (1512) 
0.690665

>  <∆G_bound>  (1512) 
-3.289177

>  <regarded>  (1512) 
5CMS_0_D_γ,5CB5_0_E_γ

>  <ref_pdb>  (1512) 
nan

>  <smiles>  (1512) 
CC1OC2(CNC3C(N)NCNC32)C(O)C1O

>  <submitter_email>  (1512) 
nan

>  <disregarded>  (1512) 


>  <LE>  (1512) 
-0.234108

>  <submitter_institution>  (1512) 
nan

>  <ref_mols>  (1512) 
5CMS_0_D,5CB5_0_E

>  <N_constrained_atoms>  (1512) 
17.0

>  <ref_url>  (1512) 
nan

>  <method>  (1512) 
nan

>  <comRMSD>  (1512) 
nan

>  <N_unconstrained_atoms>  (1512) 
0.0

>  <∆∆G>  (1512) 
-3.979841

>  <runtime>  (1512) 
24.617547

>  <generation_date>  (1512) 
nan

$$$$
2BFQ_1_A_α-mArh-5cb5_I_0_I_α
     RDKit          3D

 10 10  0  0  0  0  0  0  0  0999 V2000
   -1.7270   22.2600   -7.7410 C   0  0  0  0  0  0  0  0  0  0  0  0
   -3.1890   22.3690   -8.1990 C   0  0  1  0  0  0  0  0  0  0  0  0
   -4.1570   21.4570   -7.5490 N   0  0  0  0  0  0  0  0  0  0  0  0
   -3.8640   23.7190   -7.9010 C   0  0  2  0  0  0  0  0  0  0  0  0
   -3.0000   24.7570   -7.6760 O   0  0  0  0  0  0  0  0  0  0  0  0
   -3.6270   20.8560   -6.3430 O   0  0  0  0  0  0  0  0  0  0  0  0
   -5.3270   22.2150   -7.1690 C   0  0  2  0  0  0  0  0  0  0  0  0
   -4.6380   23.4380   -6.6390 C   0  0  2  0  0  0  0  0  0  0  0  0
   -6.1400   21.5980   -6.1960 O   0  0  0  0  0  0  0  0  0  0  0  0
   -5.5150   24.4700   -6.2230 O   0  0  0  0  0  0  0  0  0  0  0  0
  2  1  1  1
  2  3  1  0
  2  4  1  0
  4  5  1  1
  3  6  1  0
  3  7  1  0
  4  8  1  0
  7  8  1  0
  7  9  1  1
  8 10  1  6
M  END
>  <%Rank>  (1513) 
nan

>  <N_hits>  (1513) 
2

>  <submitter_name>  (1513) 
nan

>  <original SMILES>  (1513) 
nan

>  <∆G_unbound>  (1513) 
0.073315

>  <∆G_bound>  (1513) 
-4.258795

>  <regarded>  (1513) 
2BFQ_1_A_α,mArh-5cb5_I_0_I_α

>  <ref_pdb>  (1513) 
nan

>  <smiles>  (1513) 
CC1C(O)C(O)C(O)N1O

>  <submitter_email>  (1513) 
nan

>  <disregarded>  (1513) 


>  <LE>  (1513) 
-0.433211

>  <submitter_institution>  (1513) 
nan

>  <ref_mols>  (1513) 
2BFQ_1_A,mArh-5cb5_I_0_I

>  <N_constrained_atoms>  (1513) 
10.0

>  <ref_url>  (1513) 
nan

>  <method>  (1513) 
nan

>  <comRMSD>  (1513) 
nan

>  <N_unconstrained_atoms>  (1513) 
0.0

>  <∆∆G>  (1513) 
-4.332109

>  <runtime>  (1513) 
21.749456

>  <generation_date>  (1513) 
nan

$$$$
mArh-5cb5_L_0_L_γ-4IQY_0_A_γ
     RDKit          3D

  8  8  0  0  0  0  0  0  0  0999 V2000
   -0.3140   12.4000   -3.8490 O   0  0  0  0  0  0  0  0  0  0  0  0
   -0.7630   13.7180   -4.1580 C   0  0  1  0  0  0  0  0  0  0  0  0
   -0.5630   14.6640   -2.9800 C   0  0  0  0  0  0  0  0  0  0  0  0
    0.1200   14.3440   -5.2190 C   0  0  2  0  0  0  0  0  0  0  0  0
    1.4470   13.8470   -5.1460 O   0  0  0  0  0  0  0  0  0  0  0  0
   -0.0890   15.9260   -3.5000 O   0  0  0  0  0  0  0  0  0  0  0  0
   -0.0980   15.8320   -4.9270 C   0  0  1  0  0  0  0  0  0  0  0  0
    0.8590   16.8580   -5.5100 C   0  0  0  0  0  0  0  0  0  0  0  0
  2  1  1  1
  2  3  1  0
  2  4  1  0
  4  5  1  1
  3  6  1  0
  4  7  1  0
  6  7  1  0
  7  8  1  6
M  END
>  <%Rank>  (1514) 
nan

>  <N_hits>  (1514) 
2

>  <submitter_name>  (1514) 
nan

>  <original SMILES>  (1514) 
nan

>  <∆G_unbound>  (1514) 
0.021216

>  <∆G_bound>  (1514) 
-2.80346

>  <regarded>  (1514) 
mArh-5cb5_L_0_L_γ,4IQY_0_A_γ

>  <ref_pdb>  (1514) 
nan

>  <smiles>  (1514) 
CC1OCC(O)C1O

>  <submitter_email>  (1514) 
nan

>  <disregarded>  (1514) 


>  <LE>  (1514) 
-0.353085

>  <submitter_institution>  (1514) 
nan

>  <ref_mols>  (1514) 
mArh-5cb5_L_0_L,4IQY_0_A

>  <N_constrained_atoms>  (1514) 
8.0

>  <ref_url>  (1514) 
nan

>  <method>  (1514) 
nan

>  <comRMSD>  (1514) 
nan

>  <N_unconstrained_atoms>  (1514) 
0.0

>  <∆∆G>  (1514) 
-2.824677

>  <runtime>  (1514) 
26.260821

>  <generation_date>  (1514) 
nan

$$$$
2FAV_0_B_α-mArh-6fx_7_0A_α
     RDKit          3D

 15 17  0  0  0  0  0  0  0  0999 V2000
   -3.8820   21.6540   -9.0460 C   0  0  0  0  0  0  0  0  0  0  0  0
   -4.9080   21.5170   -8.0060 C   0  0  1  0  0  0  0  0  0  0  0  0
   -4.4770   20.7400   -6.8680 O   0  0  0  0  0  0  0  0  0  0  0  0
   -4.2150   23.0610   -8.7650 C   0  0  1  0  0  0  0  0  0  0  0  0
   -4.7010   23.0370   -7.6560 C   0  0  1  0  0  0  0  0  0  0  0  0
   -4.8230   24.0350   -9.6180 N   0  0  0  0  0  0  0  0  0  0  0  0
   -5.6640   22.8490   -8.1250 C   0  0  2  0  0  0  0  0  0  0  0  0
   -5.5620   24.0450   -8.3570 O   0  0  0  0  0  0  0  0  0  0  0  0
   -5.8910   21.7580   -7.2250 O   0  0  0  0  0  0  0  0  0  0  0  0
   -3.9670   21.6850   -5.8970 C   0  0  0  0  0  0  0  0  0  0  0  0
   -4.6380   23.0340   -6.1770 C   0  0  1  0  0  0  0  0  0  0  0  0
   -5.7620   23.3220  -10.4470 C   0  0  2  0  0  0  0  0  0  0  0  0
   -6.5700   22.6490   -9.3680 C   0  0  0  0  0  0  0  0  0  0  0  0
   -3.9300   24.1570   -5.6780 O   0  0  0  0  0  0  0  0  0  0  0  0
   -5.1500   22.4310  -11.3470 O   0  0  0  0  0  0  0  0  0  0  0  0
  2  1  1  6
  2  3  1  0
  4  1  1  6
  2  5  1  0
  4  6  1  0
  4  7  1  0
  5  8  1  1
  6  8  1  0
  7  9  1  1
  3 10  1  0
  5 11  1  0
 10 11  1  0
  6 12  1  0
  7 13  1  0
 12 13  1  0
 11 14  1  6
 12 15  1  6
M  END
>  <%Rank>  (1515) 
nan

>  <N_hits>  (1515) 
2

>  <submitter_name>  (1515) 
nan

>  <original SMILES>  (1515) 
nan

>  <∆G_unbound>  (1515) 
0.37544

>  <∆G_bound>  (1515) 
6.209376

>  <regarded>  (1515) 
2FAV_0_B_α,mArh-6fx_7_0A_α

>  <ref_pdb>  (1515) 
nan

>  <smiles>  (1515) 
OC1COC2CC3C(O)CC(O)N3OC12

>  <submitter_email>  (1515) 
nan

>  <disregarded>  (1515) 


>  <LE>  (1515) 
0.388929

>  <submitter_institution>  (1515) 
nan

>  <ref_mols>  (1515) 
2FAV_0_B,mArh-6fx_7_0A

>  <N_constrained_atoms>  (1515) 
15.0

>  <ref_url>  (1515) 
nan

>  <method>  (1515) 
nan

>  <comRMSD>  (1515) 
nan

>  <N_unconstrained_atoms>  (1515) 
0.0

>  <∆∆G>  (1515) 
5.833936

>  <runtime>  (1515) 
74.351416

>  <generation_date>  (1515) 
nan

$$$$
5CB5_0_K_δ-4IQY_0_B_δ
     RDKit          3D

 10 11  0  0  0  0  0  0  0  0999 V2000
   -3.6650   15.1850    2.0670 N   0  0  0  0  0  0  0  0  0  0  0  0
   -2.6370   15.3810    1.0790 C   0  0  2  0  0  0  0  0  0  0  0  0
   -2.9000   14.7260   -0.2610 C   0  0  2  0  0  0  0  0  0  0  0  0
   -1.3930   14.8930    1.6250 N   0  0  0  0  0  0  0  0  0  0  0  0
   -1.7180   15.1990   -1.0820 C   0  0  2  0  0  0  0  0  0  0  0  0
   -4.0170   15.1420   -1.1100 N   0  0  0  0  0  0  0  0  0  0  0  0
   -0.2890   15.3040    0.7850 C   0  0  0  0  0  0  0  0  0  0  0  0
   -2.0540   14.6200   -2.3470 N   0  0  0  0  0  0  0  0  0  0  0  0
   -3.4800   14.9390   -2.4620 C   0  0  0  0  0  0  0  0  0  0  0  0
   -0.4470   14.7790   -0.5560 N   0  0  0  0  0  0  0  0  0  0  0  0
  2  1  1  1
  2  3  1  0
  2  4  1  0
  3  5  1  0
  3  6  1  6
  4  7  1  0
  5  8  1  6
  6  9  1  0
  8  9  1  0
  5 10  1  0
  7 10  1  0
M  END
>  <%Rank>  (1516) 
nan

>  <N_hits>  (1516) 
2

>  <submitter_name>  (1516) 
nan

>  <original SMILES>  (1516) 
nan

>  <∆G_unbound>  (1516) 
0.213408

>  <∆G_bound>  (1516) 
-0.803691

>  <regarded>  (1516) 
5CB5_0_K_δ,4IQY_0_B_δ

>  <ref_pdb>  (1516) 
nan

>  <smiles>  (1516) 
NC1NCNC2NCNC12

>  <submitter_email>  (1516) 
nan

>  <disregarded>  (1516) 


>  <LE>  (1516) 
-0.10171

>  <submitter_institution>  (1516) 
nan

>  <ref_mols>  (1516) 
5CB5_0_K,4IQY_0_B

>  <N_constrained_atoms>  (1516) 
10.0

>  <ref_url>  (1516) 
nan

>  <method>  (1516) 
nan

>  <comRMSD>  (1516) 
nan

>  <N_unconstrained_atoms>  (1516) 
0.0

>  <∆∆G>  (1516) 
-1.017099

>  <runtime>  (1516) 
22.184241

>  <generation_date>  (1516) 
nan

$$$$
5CB5_0_M_γ-mArh-5cms_P_15_P_γ
     RDKit          3D

  8  8  0  0  0  0  0  0  0  0999 V2000
   -0.3580   12.4450   -3.8050 O   0  0  0  0  0  0  0  0  0  0  0  0
   -0.9200   13.7360   -4.0430 C   0  0  1  0  0  0  0  0  0  0  0  0
   -0.7000   14.6750   -2.8640 C   0  0  0  0  0  0  0  0  0  0  0  0
   -0.1610   14.4170   -5.1620 C   0  0  2  0  0  0  0  0  0  0  0  0
    1.1790   13.9590   -5.2320 O   0  0  0  0  0  0  0  0  0  0  0  0
   -0.2250   15.9340   -3.3910 O   0  0  0  0  0  0  0  0  0  0  0  0
   -0.3690   15.8910   -4.8150 C   0  0  1  0  0  0  0  0  0  0  0  0
    0.5530   16.9110   -5.4640 C   0  0  0  0  0  0  0  0  0  0  0  0
  2  1  1  1
  2  3  1  0
  2  4  1  0
  4  5  1  1
  3  6  1  0
  4  7  1  0
  6  7  1  0
  7  8  1  6
M  END
>  <%Rank>  (1517) 
nan

>  <N_hits>  (1517) 
2

>  <submitter_name>  (1517) 
nan

>  <original SMILES>  (1517) 
nan

>  <∆G_unbound>  (1517) 
0.021216

>  <∆G_bound>  (1517) 
-2.64009

>  <regarded>  (1517) 
5CB5_0_M_γ,mArh-5cms_P_15_P_γ

>  <ref_pdb>  (1517) 
nan

>  <smiles>  (1517) 
CC1OCC(O)C1O

>  <submitter_email>  (1517) 
nan

>  <disregarded>  (1517) 


>  <LE>  (1517) 
-0.332663

>  <submitter_institution>  (1517) 
nan

>  <ref_mols>  (1517) 
5CB5_0_M,mArh-5cms_P_15_P

>  <N_constrained_atoms>  (1517) 
8.0

>  <ref_url>  (1517) 
nan

>  <method>  (1517) 
nan

>  <comRMSD>  (1517) 
nan

>  <N_unconstrained_atoms>  (1517) 
0.0

>  <∆∆G>  (1517) 
-2.661306

>  <runtime>  (1517) 
18.359845

>  <generation_date>  (1517) 
nan

$$$$
6FX7_0_A_δ-mArh-5cms_H_7_H_γ
     RDKit          3D

 17 19  0  0  0  0  0  0  0  0999 V2000
   -3.9180   15.5740    1.6540 N   0  0  0  0  0  0  0  0  0  0  0  0
   -2.8650   14.8920    0.9200 C   0  0  1  0  0  0  0  0  0  0  0  0
   -2.6990   15.3390   -0.5450 C   0  0  1  0  0  0  0  0  0  0  0  0
   -1.6520   15.1890    1.6470 N   0  0  0  0  0  0  0  0  0  0  0  0
   -1.4820   14.5850   -1.0780 C   0  0  1  0  0  0  0  0  0  0  0  0
   -3.7570   15.0480   -1.5220 N   0  0  0  0  0  0  0  0  0  0  0  0
   -0.4570   14.5720    1.0840 C   0  0  0  0  0  0  0  0  0  0  0  0
   -1.5370   14.8390   -2.6120 C   0  0  1  0  0  0  0  0  0  0  0  0
   -3.0330   15.1950   -2.8160 C   0  0  0  0  0  0  0  0  0  0  0  0
   -0.3110   14.9620   -0.3020 N   0  0  0  0  0  0  0  0  0  0  0  0
   -0.6520   15.9630   -2.9700 O   0  0  0  0  0  0  0  0  0  0  0  0
   -1.0050   13.7310   -3.5670 C   0  0  1  0  0  0  0  0  0  0  0  0
   -1.9090   12.7470   -4.0200 O   0  0  0  0  0  0  0  0  0  0  0  0
   -0.5300   15.9150   -4.4040 C   0  0  2  0  0  0  0  0  0  0  0  0
   -0.3420   14.4440   -4.7520 C   0  0  1  0  0  0  0  0  0  0  0  0
    0.5740   16.8330   -4.8910 C   0  0  0  0  0  0  0  0  0  0  0  0
    1.0100   14.0180   -4.9080 O   0  0  0  0  0  0  0  0  0  0  0  0
  2  1  1  1
  2  3  1  0
  2  4  1  0
  3  5  1  0
  3  6  1  6
  4  7  1  0
  5  8  1  0
  6  9  1  0
  8  9  1  6
  5 10  1  1
  7 10  1  0
  8 11  1  0
  8 12  1  0
 12 13  1  6
 11 14  1  0
 12 15  1  0
 14 15  1  0
 14 16  1  1
 15 17  1  1
M  END
>  <%Rank>  (1518) 
nan

>  <N_hits>  (1518) 
2

>  <submitter_name>  (1518) 
nan

>  <original SMILES>  (1518) 
nan

>  <∆G_unbound>  (1518) 
0.690665

>  <∆G_bound>  (1518) 
-3.300096

>  <regarded>  (1518) 
6FX7_0_A_δ,mArh-5cms_H_7_H_γ

>  <ref_pdb>  (1518) 
nan

>  <smiles>  (1518) 
CC1OC2(CNC3C(N)NCNC32)C(O)C1O

>  <submitter_email>  (1518) 
nan

>  <disregarded>  (1518) 


>  <LE>  (1518) 
-0.234751

>  <submitter_institution>  (1518) 
nan

>  <ref_mols>  (1518) 
6FX7_0_A,mArh-5cms_H_7_H

>  <N_constrained_atoms>  (1518) 
17.0

>  <ref_url>  (1518) 
nan

>  <method>  (1518) 
nan

>  <comRMSD>  (1518) 
nan

>  <N_unconstrained_atoms>  (1518) 
0.0

>  <∆∆G>  (1518) 
-3.990761

>  <runtime>  (1518) 
24.201591

>  <generation_date>  (1518) 
nan

$$$$
4IQY_0_A_δ-5CB5_0_K_γ
     RDKit          3D

 17 19  0  0  0  0  0  0  0  0999 V2000
   -3.8740   15.3930    1.6170 N   0  0  0  0  0  0  0  0  0  0  0  0
   -2.7880   14.6540    0.9920 C   0  0  1  0  0  0  0  0  0  0  0  0
   -2.7010   14.8120   -0.5520 C   0  0  1  0  0  0  0  0  0  0  0  0
   -1.6060   15.2040    1.6310 N   0  0  0  0  0  0  0  0  0  0  0  0
   -1.3100   14.3520   -1.0340 C   0  0  1  0  0  0  0  0  0  0  0  0
   -3.5860   14.1250   -1.4840 N   0  0  0  0  0  0  0  0  0  0  0  0
   -0.3610   14.6500    1.1220 C   0  0  0  0  0  0  0  0  0  0  0  0
   -1.3980   14.4860   -2.5970 C   0  0  1  0  0  0  0  0  0  0  0  0
   -2.9460   14.5830   -2.7640 C   0  0  0  0  0  0  0  0  0  0  0  0
   -0.2540   14.9970   -0.2720 N   0  0  0  0  0  0  0  0  0  0  0  0
   -0.6770   15.6850   -3.0640 O   0  0  0  0  0  0  0  0  0  0  0  0
   -0.7030   13.4380   -3.5050 C   0  0  1  0  0  0  0  0  0  0  0  0
   -1.3650   12.2310   -3.7950 O   0  0  0  0  0  0  0  0  0  0  0  0
   -0.5210   15.6230   -4.4950 C   0  0  2  0  0  0  0  0  0  0  0  0
   -0.2980   14.1510   -4.8090 C   0  0  1  0  0  0  0  0  0  0  0  0
    0.5860   16.5460   -4.9950 C   0  0  0  0  0  0  0  0  0  0  0  0
    1.0440   13.8270   -5.1590 O   0  0  0  0  0  0  0  0  0  0  0  0
  2  1  1  1
  2  3  1  0
  2  4  1  0
  3  5  1  0
  3  6  1  6
  4  7  1  0
  5  8  1  0
  6  9  1  0
  8  9  1  6
  5 10  1  1
  7 10  1  0
  8 11  1  0
  8 12  1  0
 12 13  1  6
 11 14  1  0
 12 15  1  0
 14 15  1  0
 14 16  1  1
 15 17  1  1
M  END
>  <%Rank>  (1519) 
nan

>  <N_hits>  (1519) 
2

>  <submitter_name>  (1519) 
nan

>  <original SMILES>  (1519) 
nan

>  <∆G_unbound>  (1519) 
0.690665

>  <∆G_bound>  (1519) 
-3.301837

>  <regarded>  (1519) 
4IQY_0_A_δ,5CB5_0_K_γ

>  <ref_pdb>  (1519) 
nan

>  <smiles>  (1519) 
CC1OC2(CNC3C(N)NCNC32)C(O)C1O

>  <submitter_email>  (1519) 
nan

>  <disregarded>  (1519) 


>  <LE>  (1519) 
-0.234853

>  <submitter_institution>  (1519) 
nan

>  <ref_mols>  (1519) 
4IQY_0_A,5CB5_0_K

>  <N_constrained_atoms>  (1519) 
17.0

>  <ref_url>  (1519) 
nan

>  <method>  (1519) 
nan

>  <comRMSD>  (1519) 
nan

>  <N_unconstrained_atoms>  (1519) 
0.0

>  <∆∆G>  (1519) 
-3.992502

>  <runtime>  (1519) 
26.14125

>  <generation_date>  (1519) 
nan

$$$$
5CB5_0_E_γ-5CMS_0_A_δ
     RDKit          3D

 17 19  0  0  0  0  0  0  0  0999 V2000
   -1.3840   12.6430   -3.6500 O   0  0  0  0  0  0  0  0  0  0  0  0
   -0.6940   13.8640   -3.4230 C   0  0  2  0  0  0  0  0  0  0  0  0
   -1.4640   14.9950   -2.7000 C   0  0  2  0  0  0  0  0  0  0  0  0
   -0.2630   14.4330   -4.7760 C   0  0  2  0  0  0  0  0  0  0  0  0
    1.0800   14.0760   -5.0570 O   0  0  0  0  0  0  0  0  0  0  0  0
   -0.9780   16.2180   -3.3300 O   0  0  0  0  0  0  0  0  0  0  0  0
   -0.5650   15.9310   -4.6860 C   0  0  1  0  0  0  0  0  0  0  0  0
   -1.3270   15.2120   -1.1480 C   0  0  1  0  0  0  0  0  0  0  0  0
   -3.0100   14.8340   -2.8470 C   0  0  0  0  0  0  0  0  0  0  0  0
    0.5660   16.8820   -5.0800 C   0  0  0  0  0  0  0  0  0  0  0  0
   -2.7850   15.5180   -0.7200 C   0  0  1  0  0  0  0  0  0  0  0  0
   -3.5870   14.5880   -1.5030 N   0  0  0  0  0  0  0  0  0  0  0  0
   -0.6820   14.2260   -0.2800 N   0  0  0  0  0  0  0  0  0  0  0  0
   -0.6700   14.6910    1.0930 C   0  0  0  0  0  0  0  0  0  0  0  0
   -2.9370   15.5810    0.8330 C   0  0  1  0  0  0  0  0  0  0  0  0
   -4.2790   15.2860    1.3040 N   0  0  0  0  0  0  0  0  0  0  0  0
   -2.0250   14.7670    1.6080 N   0  0  0  0  0  0  0  0  0  0  0  0
  2  1  1  6
  2  3  1  0
  2  4  1  0
  4  5  1  1
  3  6  1  0
  4  7  1  0
  6  7  1  0
  3  8  1  0
  3  9  1  1
  7 10  1  1
  8 11  1  0
  9 12  1  0
 11 12  1  1
  8 13  1  1
 13 14  1  0
 11 15  1  0
 15 16  1  6
 14 17  1  0
 15 17  1  0
M  END
>  <%Rank>  (1520) 
nan

>  <N_hits>  (1520) 
2

>  <submitter_name>  (1520) 
nan

>  <original SMILES>  (1520) 
nan

>  <∆G_unbound>  (1520) 
0.631637

>  <∆G_bound>  (1520) 
-4.210641

>  <regarded>  (1520) 
5CB5_0_E_γ,5CMS_0_A_δ

>  <ref_pdb>  (1520) 
nan

>  <smiles>  (1520) 
CC1OC2(CNC3C(N)NCNC32)C(O)C1O

>  <submitter_email>  (1520) 
nan

>  <disregarded>  (1520) 


>  <LE>  (1520) 
-0.28484

>  <submitter_institution>  (1520) 
nan

>  <ref_mols>  (1520) 
5CB5_0_E,5CMS_0_A

>  <N_constrained_atoms>  (1520) 
17.0

>  <ref_url>  (1520) 
nan

>  <method>  (1520) 
nan

>  <comRMSD>  (1520) 
nan

>  <N_unconstrained_atoms>  (1520) 
0.0

>  <∆∆G>  (1520) 
-4.842277

>  <runtime>  (1520) 
24.085097

>  <generation_date>  (1520) 
nan

$$$$
6MEA_0_B_α-mArh-5cms_J_9_J_α
     RDKit          3D

 16 18  0  0  0  0  0  0  0  0999 V2000
   -2.5400   21.4090   -8.7710 C   0  0  0  0  0  0  0  0  0  0  0  0
   -3.1280   22.0030   -7.5430 C   0  0  2  0  0  0  0  0  0  0  0  0
   -4.1860   21.1700   -7.1530 O   0  0  0  0  0  0  0  0  0  0  0  0
   -1.5850   22.3300   -9.3530 C   0  0  1  0  0  0  0  0  0  0  0  0
   -3.6430   23.4410   -7.7010 C   0  0  1  0  0  0  0  0  0  0  0  0
   -1.2340   22.0690  -10.6900 O   0  0  0  0  0  0  0  0  0  0  0  0
   -2.0450   23.7630   -9.2730 C   0  0  2  0  0  0  0  0  0  0  0  0
   -3.4910   23.8980   -9.0580 O   0  0  0  0  0  0  0  0  0  0  0  0
   -5.0420   22.0160   -6.4690 C   0  0  1  0  0  0  0  0  0  0  0  0
   -5.0990   23.3320   -7.2520 C   0  0  1  0  0  0  0  0  0  0  0  0
   -0.4070   23.2150  -10.8040 C   0  0  1  0  0  0  0  0  0  0  0  0
   -1.4160   24.3240  -10.5670 C   0  0  1  0  0  0  0  0  0  0  0  0
   -6.2730   21.3640   -6.4140 O   0  0  0  0  0  0  0  0  0  0  0  0
   -5.4450   24.3670   -6.3210 O   0  0  0  0  0  0  0  0  0  0  0  0
    0.7060   23.1230   -9.7620 C   0  0  0  0  0  0  0  0  0  0  0  0
   -2.2910   24.5330  -11.6680 O   0  0  0  0  0  0  0  0  0  0  0  0
  2  1  1  6
  2  3  1  0
  4  1  1  6
  2  5  1  0
  4  6  1  0
  4  7  1  0
  5  8  1  6
  7  8  1  6
  3  9  1  0
  5 10  1  0
  9 10  1  0
  6 11  1  0
  7 12  1  0
 11 12  1  0
  9 13  1  6
 10 14  1  1
 11 15  1  1
 12 16  1  6
M  END
>  <%Rank>  (1521) 
nan

>  <N_hits>  (1521) 
2

>  <submitter_name>  (1521) 
nan

>  <original SMILES>  (1521) 
nan

>  <∆G_unbound>  (1521) 
0.694326

>  <∆G_bound>  (1521) 
-8.493036

>  <regarded>  (1521) 
6MEA_0_B_α,mArh-5cms_J_9_J_α

>  <ref_pdb>  (1521) 
nan

>  <smiles>  (1521) 
CC1OC2CC3OC(O)C(O)C3OC2C1O

>  <submitter_email>  (1521) 
nan

>  <disregarded>  (1521) 


>  <LE>  (1521) 
-0.57421

>  <submitter_institution>  (1521) 
nan

>  <ref_mols>  (1521) 
6MEA_0_B,mArh-5cms_J_9_J

>  <N_constrained_atoms>  (1521) 
16.0

>  <ref_url>  (1521) 
nan

>  <method>  (1521) 
nan

>  <comRMSD>  (1521) 
nan

>  <N_unconstrained_atoms>  (1521) 
0.0

>  <∆∆G>  (1521) 
-9.187362

>  <runtime>  (1521) 
25.870812

>  <generation_date>  (1521) 
nan

$$$$
mArh-5cb5_K_0_K_γ-5CB5_0_L_δ
     RDKit          3D

 17 19  0  0  0  0  0  0  0  0999 V2000
   -1.3110   12.6650   -3.6200 O   0  0  0  0  0  0  0  0  0  0  0  0
   -0.5790   13.8740   -3.4720 C   0  0  2  0  0  0  0  0  0  0  0  0
   -1.2530   15.0560   -2.7370 C   0  0  2  0  0  0  0  0  0  0  0  0
   -0.1730   14.4080   -4.8450 C   0  0  2  0  0  0  0  0  0  0  0  0
    1.1470   13.9970   -5.1720 O   0  0  0  0  0  0  0  0  0  0  0  0
   -0.6440   16.2290   -3.3490 O   0  0  0  0  0  0  0  0  0  0  0  0
   -0.3880   15.9240   -4.7400 C   0  0  1  0  0  0  0  0  0  0  0  0
   -1.0910   15.1760   -1.1880 C   0  0  1  0  0  0  0  0  0  0  0  0
   -2.8040   15.1220   -2.8900 C   0  0  0  0  0  0  0  0  0  0  0  0
    0.7520   16.7980   -5.2570 C   0  0  0  0  0  0  0  0  0  0  0  0
   -2.4780   14.8610   -0.6290 C   0  0  2  0  0  0  0  0  0  0  0  0
   -3.4200   15.4600   -1.5770 N   0  0  0  0  0  0  0  0  0  0  0  0
   -0.0900   14.3750   -0.4750 N   0  0  0  0  0  0  0  0  0  0  0  0
   -0.1310   14.4810    0.9900 C   0  0  0  0  0  0  0  0  0  0  0  0
   -2.3900   15.3840    0.8120 C   0  0  1  0  0  0  0  0  0  0  0  0
   -3.6530   15.4430    1.5260 N   0  0  0  0  0  0  0  0  0  0  0  0
   -1.4520   14.6180    1.5810 N   0  0  0  0  0  0  0  0  0  0  0  0
  2  1  1  6
  2  3  1  0
  2  4  1  0
  4  5  1  1
  3  6  1  0
  4  7  1  0
  6  7  1  0
  3  8  1  0
  3  9  1  1
  7 10  1  1
  8 11  1  0
  9 12  1  0
 11 12  1  6
  8 13  1  1
 13 14  1  0
 11 15  1  0
 15 16  1  1
 14 17  1  0
 15 17  1  0
M  END
>  <%Rank>  (1522) 
nan

>  <N_hits>  (1522) 
2

>  <submitter_name>  (1522) 
nan

>  <original SMILES>  (1522) 
nan

>  <∆G_unbound>  (1522) 
0.631637

>  <∆G_bound>  (1522) 
-3.26959

>  <regarded>  (1522) 
mArh-5cb5_K_0_K_γ,5CB5_0_L_δ

>  <ref_pdb>  (1522) 
nan

>  <smiles>  (1522) 
CC1OC2(CNC3C(N)NCNC32)C(O)C1O

>  <submitter_email>  (1522) 
nan

>  <disregarded>  (1522) 


>  <LE>  (1522) 
-0.229484

>  <submitter_institution>  (1522) 
nan

>  <ref_mols>  (1522) 
mArh-5cb5_K_0_K,5CB5_0_L

>  <N_constrained_atoms>  (1522) 
17.0

>  <ref_url>  (1522) 
nan

>  <method>  (1522) 
nan

>  <comRMSD>  (1522) 
nan

>  <N_unconstrained_atoms>  (1522) 
0.0

>  <∆∆G>  (1522) 
-3.901227

>  <runtime>  (1522) 
25.573363

>  <generation_date>  (1522) 
nan

$$$$
mArh-5cms_Q_16_Q_α-mArh-5cms_C_2_C_α
     RDKit          3D

 10 10  0  0  0  0  0  0  0  0999 V2000
   -1.3270   22.1160   -7.7870 C   0  0  0  0  0  0  0  0  0  0  0  0
   -1.0410   22.0870   -9.2740 C   0  0  1  0  0  0  0  0  0  0  0  0
   -2.1360   21.4650   -9.9970 O   0  0  0  0  0  0  0  0  0  0  0  0
   -0.8180   23.4750   -9.8810 C   0  0  1  0  0  0  0  0  0  0  0  0
    0.3360   23.5210  -10.7170 O   0  0  0  0  0  0  0  0  0  0  0  0
   -2.3890   22.2710  -11.1520 C   0  0  2  0  0  0  0  0  0  0  0  0
   -2.1040   23.6860  -10.6790 C   0  0  0  0  0  0  0  0  0  0  0  0
   -3.7680   22.2060  -11.4950 O   0  0  0  0  0  0  0  0  0  0  0  0
   -1.9390   24.6100  -11.7720 O   0  0  0  0  0  0  0  0  0  0  0  0
   -3.1770   24.0720   -9.8520 O   0  0  0  0  0  0  0  0  0  0  0  0
  2  1  1  1
  2  3  1  0
  2  4  1  0
  4  5  1  6
  3  6  1  0
  4  7  1  0
  6  7  1  0
  6  8  1  1
  7  9  1  0
  7 10  1  0
M  END
>  <%Rank>  (1523) 
nan

>  <N_hits>  (1523) 
2

>  <submitter_name>  (1523) 
nan

>  <original SMILES>  (1523) 
nan

>  <∆G_unbound>  (1523) 
0.03878

>  <∆G_bound>  (1523) 
-2.441507

>  <regarded>  (1523) 
mArh-5cms_Q_16_Q_α,mArh-5cms_C_2_C_α

>  <ref_pdb>  (1523) 
nan

>  <smiles>  (1523) 
CC1OC(O)C(O)(O)C1O

>  <submitter_email>  (1523) 
nan

>  <disregarded>  (1523) 


>  <LE>  (1523) 
-0.248029

>  <submitter_institution>  (1523) 
nan

>  <ref_mols>  (1523) 
mArh-5cms_Q_16_Q,mArh-5cms_C_2_C

>  <N_constrained_atoms>  (1523) 
10.0

>  <ref_url>  (1523) 
nan

>  <method>  (1523) 
nan

>  <comRMSD>  (1523) 
nan

>  <N_unconstrained_atoms>  (1523) 
0.0

>  <∆∆G>  (1523) 
-2.480287

>  <runtime>  (1523) 
25.841662

>  <generation_date>  (1523) 
nan

$$$$
5CB5_0_J_γ-mArh-5cms_O_14_O_γ
     RDKit          3D

  8  8  0  0  0  0  0  0  0  0999 V2000
   -0.4610   12.4330   -3.8370 O   0  0  0  0  0  0  0  0  0  0  0  0
   -0.9070   13.7690   -4.0460 C   0  0  1  0  0  0  0  0  0  0  0  0
   -0.6350   14.6590   -2.8400 C   0  0  0  0  0  0  0  0  0  0  0  0
   -0.0680   14.4190   -5.1210 C   0  0  2  0  0  0  0  0  0  0  0  0
    1.2520   13.8920   -5.1450 O   0  0  0  0  0  0  0  0  0  0  0  0
   -0.1020   15.9110   -3.3320 O   0  0  0  0  0  0  0  0  0  0  0  0
   -0.2170   15.8960   -4.7560 C   0  0  1  0  0  0  0  0  0  0  0  0
    0.7500   16.8970   -5.3700 C   0  0  0  0  0  0  0  0  0  0  0  0
  2  1  1  1
  2  3  1  0
  2  4  1  0
  4  5  1  1
  3  6  1  0
  4  7  1  0
  6  7  1  0
  7  8  1  6
M  END
>  <%Rank>  (1524) 
nan

>  <N_hits>  (1524) 
2

>  <submitter_name>  (1524) 
nan

>  <original SMILES>  (1524) 
nan

>  <∆G_unbound>  (1524) 
0.021216

>  <∆G_bound>  (1524) 
-2.785416

>  <regarded>  (1524) 
5CB5_0_J_γ,mArh-5cms_O_14_O_γ

>  <ref_pdb>  (1524) 
nan

>  <smiles>  (1524) 
CC1OCC(O)C1O

>  <submitter_email>  (1524) 
nan

>  <disregarded>  (1524) 


>  <LE>  (1524) 
-0.350829

>  <submitter_institution>  (1524) 
nan

>  <ref_mols>  (1524) 
5CB5_0_J,mArh-5cms_O_14_O

>  <N_constrained_atoms>  (1524) 
8.0

>  <ref_url>  (1524) 
nan

>  <method>  (1524) 
nan

>  <comRMSD>  (1524) 
nan

>  <N_unconstrained_atoms>  (1524) 
0.0

>  <∆∆G>  (1524) 
-2.806633

>  <runtime>  (1524) 
29.317617

>  <generation_date>  (1524) 
nan

$$$$
5CB5_0_L_δ-mArh-5cb5_I_0_I_γ
     RDKit          3D

 17 19  0  0  0  0  0  0  0  0999 V2000
   -3.6540   15.3780    1.6520 N   0  0  0  0  0  0  0  0  0  0  0  0
   -2.5800   14.8220    0.8500 C   0  0  1  0  0  0  0  0  0  0  0  0
   -2.5380   15.4480   -0.5570 C   0  0  1  0  0  0  0  0  0  0  0  0
   -1.3880   15.1260    1.5850 N   0  0  0  0  0  0  0  0  0  0  0  0
   -1.1000   15.3650   -1.1140 C   0  0  2  0  0  0  0  0  0  0  0  0
   -3.4360   14.8250   -1.5450 N   0  0  0  0  0  0  0  0  0  0  0  0
   -0.1910   14.5380    1.0230 C   0  0  0  0  0  0  0  0  0  0  0  0
   -1.2910   15.1590   -2.6550 C   0  0  1  0  0  0  0  0  0  0  0  0
   -2.8190   15.1480   -2.8410 C   0  0  0  0  0  0  0  0  0  0  0  0
   -0.3170   14.3490   -0.4090 N   0  0  0  0  0  0  0  0  0  0  0  0
   -0.7570   16.3860   -3.2570 O   0  0  0  0  0  0  0  0  0  0  0  0
   -0.5560   14.0250   -3.4340 C   0  0  1  0  0  0  0  0  0  0  0  0
   -1.3210   12.9960   -4.0390 O   0  0  0  0  0  0  0  0  0  0  0  0
   -0.3530   16.0820   -4.5950 C   0  0  2  0  0  0  0  0  0  0  0  0
    0.3260   14.7310   -4.4780 C   0  0  2  0  0  0  0  0  0  0  0  0
    0.5210   17.1960   -5.1420 C   0  0  0  0  0  0  0  0  0  0  0  0
    0.4060   13.9890   -5.6910 O   0  0  0  0  0  0  0  0  0  0  0  0
  2  1  1  1
  2  3  1  0
  2  4  1  0
  3  5  1  0
  3  6  1  6
  4  7  1  0
  5  8  1  0
  6  9  1  0
  8  9  1  1
  5 10  1  1
  7 10  1  0
  8 11  1  0
  8 12  1  0
 12 13  1  6
 11 14  1  0
 12 15  1  0
 14 15  1  0
 14 16  1  1
 15 17  1  6
M  END
>  <%Rank>  (1525) 
nan

>  <N_hits>  (1525) 
2

>  <submitter_name>  (1525) 
nan

>  <original SMILES>  (1525) 
nan

>  <∆G_unbound>  (1525) 
0.690665

>  <∆G_bound>  (1525) 
-4.188395

>  <regarded>  (1525) 
5CB5_0_L_δ,mArh-5cb5_I_0_I_γ

>  <ref_pdb>  (1525) 
nan

>  <smiles>  (1525) 
CC1OC2(CNC3C(N)NCNC32)C(O)C1O

>  <submitter_email>  (1525) 
nan

>  <disregarded>  (1525) 


>  <LE>  (1525) 
-0.287004

>  <submitter_institution>  (1525) 
nan

>  <ref_mols>  (1525) 
5CB5_0_L,mArh-5cb5_I_0_I

>  <N_constrained_atoms>  (1525) 
17.0

>  <ref_url>  (1525) 
nan

>  <method>  (1525) 
nan

>  <comRMSD>  (1525) 
nan

>  <N_unconstrained_atoms>  (1525) 
0.0

>  <∆∆G>  (1525) 
-4.87906

>  <runtime>  (1525) 
29.301331

>  <generation_date>  (1525) 
nan

$$$$
mArh-5cms_G_3_G_γ-mArh-EU0034_0_A_α
     RDKit          3D

 10 11  0  0  0  0  0  0  0  0999 V2000
   -4.0500   15.5360    1.8100 N   0  0  0  0  0  0  0  0  0  0  0  0
   -2.8340   15.4930    1.0180 C   0  0  2  0  0  0  0  0  0  0  0  0
   -2.9880   14.7930   -0.3040 C   0  0  2  0  0  0  0  0  0  0  0  0
   -1.7610   14.8930    1.7670 N   0  0  0  0  0  0  0  0  0  0  0  0
   -1.6570   15.1050   -0.9560 C   0  0  2  0  0  0  0  0  0  0  0  0
   -3.9440   15.2760   -1.2930 N   0  0  0  0  0  0  0  0  0  0  0  0
   -0.4680   14.9410    1.0830 C   0  0  0  0  0  0  0  0  0  0  0  0
   -1.8890   14.5910   -2.2720 N   0  0  0  0  0  0  0  0  0  0  0  0
   -3.2550   15.0200   -2.5640 C   0  0  0  0  0  0  0  0  0  0  0  0
   -0.5570   14.4770   -0.2860 N   0  0  0  0  0  0  0  0  0  0  0  0
  2  1  1  1
  2  3  1  0
  2  4  1  0
  3  5  1  0
  3  6  1  6
  4  7  1  0
  5  8  1  6
  6  9  1  0
  8  9  1  0
  5 10  1  0
  7 10  1  0
M  END
>  <%Rank>  (1526) 
nan

>  <N_hits>  (1526) 
2

>  <submitter_name>  (1526) 
nan

>  <original SMILES>  (1526) 
nan

>  <∆G_unbound>  (1526) 
0.213408

>  <∆G_bound>  (1526) 
-1.230504

>  <regarded>  (1526) 
mArh-5cms_G_3_G_γ,mArh-EU0034_0_A_α

>  <ref_pdb>  (1526) 
nan

>  <smiles>  (1526) 
NC1NCNC2NCNC12

>  <submitter_email>  (1526) 
nan

>  <disregarded>  (1526) 


>  <LE>  (1526) 
-0.144391

>  <submitter_institution>  (1526) 
nan

>  <ref_mols>  (1526) 
mArh-5cms_G_3_G,mArh-EU0034_0_A

>  <N_constrained_atoms>  (1526) 
10.0

>  <ref_url>  (1526) 
nan

>  <method>  (1526) 
nan

>  <comRMSD>  (1526) 
nan

>  <N_unconstrained_atoms>  (1526) 
0.0

>  <∆∆G>  (1526) 
-1.443912

>  <runtime>  (1526) 
21.468146

>  <generation_date>  (1526) 
nan

$$$$
5CB5_0_R_γ-4IQY_0_B_δ
     RDKit          3D

 17 19  0  0  0  0  0  0  0  0999 V2000
   -1.3440   12.7210   -3.6560 O   0  0  0  0  0  0  0  0  0  0  0  0
   -0.5850   13.8870   -3.3580 C   0  0  2  0  0  0  0  0  0  0  0  0
   -1.3200   15.0240   -2.6130 C   0  0  2  0  0  0  0  0  0  0  0  0
   -0.0670   14.4770   -4.6720 C   0  0  2  0  0  0  0  0  0  0  0  0
    1.2890   14.1240   -4.8850 O   0  0  0  0  0  0  0  0  0  0  0  0
   -0.8280   16.2490   -3.2290 O   0  0  0  0  0  0  0  0  0  0  0  0
   -0.3770   15.9780   -4.5750 C   0  0  1  0  0  0  0  0  0  0  0  0
   -1.1810   15.2420   -1.0660 C   0  0  1  0  0  0  0  0  0  0  0  0
   -2.8730   14.8730   -2.7390 C   0  0  0  0  0  0  0  0  0  0  0  0
    0.7600   16.9350   -4.9090 C   0  0  0  0  0  0  0  0  0  0  0  0
   -2.6440   15.5020   -0.6240 C   0  0  1  0  0  0  0  0  0  0  0  0
   -3.4230   14.5550   -1.3990 N   0  0  0  0  0  0  0  0  0  0  0  0
   -0.4870   14.2730   -0.2200 N   0  0  0  0  0  0  0  0  0  0  0  0
   -0.4980   14.7280    1.1490 C   0  0  0  0  0  0  0  0  0  0  0  0
   -2.7880   15.5420    0.9150 C   0  0  1  0  0  0  0  0  0  0  0  0
   -4.1230   15.2270    1.3900 N   0  0  0  0  0  0  0  0  0  0  0  0
   -1.8540   14.7360    1.6570 N   0  0  0  0  0  0  0  0  0  0  0  0
  2  1  1  6
  2  3  1  0
  2  4  1  0
  4  5  1  1
  3  6  1  0
  4  7  1  0
  6  7  1  0
  3  8  1  0
  3  9  1  1
  7 10  1  1
  8 11  1  0
  9 12  1  0
 11 12  1  1
  8 13  1  1
 13 14  1  0
 11 15  1  0
 15 16  1  6
 14 17  1  0
 15 17  1  0
M  END
>  <%Rank>  (1527) 
nan

>  <N_hits>  (1527) 
2

>  <submitter_name>  (1527) 
nan

>  <original SMILES>  (1527) 
nan

>  <∆G_unbound>  (1527) 
0.631637

>  <∆G_bound>  (1527) 
-3.655468

>  <regarded>  (1527) 
5CB5_0_R_γ,4IQY_0_B_δ

>  <ref_pdb>  (1527) 
nan

>  <smiles>  (1527) 
CC1OC2(CNC3C(N)NCNC32)C(O)C1O

>  <submitter_email>  (1527) 
nan

>  <disregarded>  (1527) 


>  <LE>  (1527) 
-0.252183

>  <submitter_institution>  (1527) 
nan

>  <ref_mols>  (1527) 
5CB5_0_R,4IQY_0_B

>  <N_constrained_atoms>  (1527) 
17.0

>  <ref_url>  (1527) 
nan

>  <method>  (1527) 
nan

>  <comRMSD>  (1527) 
nan

>  <N_unconstrained_atoms>  (1527) 
0.0

>  <∆∆G>  (1527) 
-4.287105

>  <runtime>  (1527) 
24.158212

>  <generation_date>  (1527) 
nan

$$$$
mArh-5cb5_K_0_K_γ-5CB5_0_D_δ
     RDKit          3D

 17 19  0  0  0  0  0  0  0  0999 V2000
   -1.0200   12.6170   -3.5360 O   0  0  0  0  0  0  0  0  0  0  0  0
   -0.4480   13.9160   -3.4530 C   0  0  2  0  0  0  0  0  0  0  0  0
   -1.2880   15.0400   -2.8030 C   0  0  2  0  0  0  0  0  0  0  0  0
   -0.1290   14.3970   -4.8650 C   0  0  2  0  0  0  0  0  0  0  0  0
    1.1980   14.0350   -5.2260 O   0  0  0  0  0  0  0  0  0  0  0  0
   -0.8710   16.2480   -3.5030 O   0  0  0  0  0  0  0  0  0  0  0  0
   -0.4200   15.9020   -4.8350 C   0  0  1  0  0  0  0  0  0  0  0  0
   -1.1550   15.3310   -1.2670 C   0  0  1  0  0  0  0  0  0  0  0  0
   -2.8230   14.8120   -2.9390 C   0  0  0  0  0  0  0  0  0  0  0  0
    0.7400   16.8080   -5.2360 C   0  0  0  0  0  0  0  0  0  0  0  0
   -2.6280   15.5080   -0.8080 C   0  0  1  0  0  0  0  0  0  0  0  0
   -3.3700   14.5290   -1.5910 N   0  0  0  0  0  0  0  0  0  0  0  0
   -0.3830   14.4370   -0.4050 N   0  0  0  0  0  0  0  0  0  0  0  0
   -0.4310   14.8890    0.9700 C   0  0  0  0  0  0  0  0  0  0  0  0
   -2.7690   15.5090    0.7500 C   0  0  1  0  0  0  0  0  0  0  0  0
   -4.0740   15.0590    1.1930 N   0  0  0  0  0  0  0  0  0  0  0  0
   -1.7730   14.7550    1.4780 N   0  0  0  0  0  0  0  0  0  0  0  0
  2  1  1  6
  2  3  1  0
  2  4  1  0
  4  5  1  1
  3  6  1  0
  4  7  1  0
  6  7  1  0
  3  8  1  0
  3  9  1  1
  7 10  1  1
  8 11  1  0
  9 12  1  0
 11 12  1  6
  8 13  1  1
 13 14  1  0
 11 15  1  0
 15 16  1  6
 14 17  1  0
 15 17  1  0
M  END
>  <%Rank>  (1528) 
nan

>  <N_hits>  (1528) 
2

>  <submitter_name>  (1528) 
nan

>  <original SMILES>  (1528) 
nan

>  <∆G_unbound>  (1528) 
0.631637

>  <∆G_bound>  (1528) 
-3.85728

>  <regarded>  (1528) 
mArh-5cb5_K_0_K_γ,5CB5_0_D_δ

>  <ref_pdb>  (1528) 
nan

>  <smiles>  (1528) 
CC1OC2(CNC3C(N)NCNC32)C(O)C1O

>  <submitter_email>  (1528) 
nan

>  <disregarded>  (1528) 


>  <LE>  (1528) 
-0.264054

>  <submitter_institution>  (1528) 
nan

>  <ref_mols>  (1528) 
mArh-5cb5_K_0_K,5CB5_0_D

>  <N_constrained_atoms>  (1528) 
17.0

>  <ref_url>  (1528) 
nan

>  <method>  (1528) 
nan

>  <comRMSD>  (1528) 
nan

>  <N_unconstrained_atoms>  (1528) 
0.0

>  <∆∆G>  (1528) 
-4.488917

>  <runtime>  (1528) 
23.827342

>  <generation_date>  (1528) 
nan

$$$$
5L9K_0_B_δ-6WOJ_0_D_δ
     RDKit          3D

 10 11  0  0  0  0  0  0  0  0999 V2000
   -4.5060   15.6240    2.0750 N   0  0  0  0  0  0  0  0  0  0  0  0
   -3.3260   15.6100    1.2410 C   0  0  2  0  0  0  0  0  0  0  0  0
   -3.5180   14.9740   -0.1040 C   0  0  2  0  0  0  0  0  0  0  0  0
   -2.2660   14.8990    1.9150 N   0  0  0  0  0  0  0  0  0  0  0  0
   -2.3150   15.4900   -0.8340 C   0  0  2  0  0  0  0  0  0  0  0  0
   -4.5660   15.3730   -1.0330 N   0  0  0  0  0  0  0  0  0  0  0  0
   -1.0990   14.5690    1.0920 C   0  0  0  0  0  0  0  0  0  0  0  0
   -2.5070   14.7820   -2.0630 N   0  0  0  0  0  0  0  0  0  0  0  0
   -3.9320   15.0270   -2.3170 C   0  0  0  0  0  0  0  0  0  0  0  0
   -1.0400   15.2670   -0.1880 N   0  0  0  0  0  0  0  0  0  0  0  0
  2  1  1  1
  2  3  1  0
  2  4  1  0
  3  5  1  0
  3  6  1  6
  4  7  1  0
  5  8  1  6
  6  9  1  0
  8  9  1  0
  5 10  1  0
  7 10  1  0
M  END
>  <%Rank>  (1529) 
nan

>  <N_hits>  (1529) 
2

>  <submitter_name>  (1529) 
nan

>  <original SMILES>  (1529) 
nan

>  <∆G_unbound>  (1529) 
0.213408

>  <∆G_bound>  (1529) 
-1.448982

>  <regarded>  (1529) 
5L9K_0_B_δ,6WOJ_0_D_δ

>  <ref_pdb>  (1529) 
nan

>  <smiles>  (1529) 
NC1NCNC2NCNC12

>  <submitter_email>  (1529) 
nan

>  <disregarded>  (1529) 


>  <LE>  (1529) 
-0.166239

>  <submitter_institution>  (1529) 
nan

>  <ref_mols>  (1529) 
5L9K_0_B,6WOJ_0_D

>  <N_constrained_atoms>  (1529) 
10.0

>  <ref_url>  (1529) 
nan

>  <method>  (1529) 
nan

>  <comRMSD>  (1529) 
nan

>  <N_unconstrained_atoms>  (1529) 
0.0

>  <∆∆G>  (1529) 
-1.66239

>  <runtime>  (1529) 
22.980796

>  <generation_date>  (1529) 
nan

$$$$
5CMS_0_B_δ-5CB5_0_D_δ
     RDKit          3D

 10 11  0  0  0  0  0  0  0  0999 V2000
   -4.2270   15.5970    1.6420 N   0  0  0  0  0  0  0  0  0  0  0  0
   -2.9380   15.5350    0.9720 C   0  0  2  0  0  0  0  0  0  0  0  0
   -2.9920   14.8800   -0.3910 C   0  0  2  0  0  0  0  0  0  0  0  0
   -1.9950   14.8420    1.8130 N   0  0  0  0  0  0  0  0  0  0  0  0
   -1.5670   15.0110   -0.8870 C   0  0  2  0  0  0  0  0  0  0  0  0
   -3.7440   15.4790   -1.4860 N   0  0  0  0  0  0  0  0  0  0  0  0
   -0.6400   14.7450    1.2490 C   0  0  0  0  0  0  0  0  0  0  0  0
   -1.7010   14.5150   -2.2250 N   0  0  0  0  0  0  0  0  0  0  0  0
   -2.9510   15.1250   -2.6720 C   0  0  0  0  0  0  0  0  0  0  0  0
   -0.6470   14.2450   -0.1060 N   0  0  0  0  0  0  0  0  0  0  0  0
  2  1  1  1
  2  3  1  0
  2  4  1  0
  3  5  1  0
  3  6  1  6
  4  7  1  0
  5  8  1  6
  6  9  1  0
  8  9  1  0
  5 10  1  0
  7 10  1  0
M  END
>  <%Rank>  (1530) 
nan

>  <N_hits>  (1530) 
2

>  <submitter_name>  (1530) 
nan

>  <original SMILES>  (1530) 
nan

>  <∆G_unbound>  (1530) 
0.213408

>  <∆G_bound>  (1530) 
-1.442331

>  <regarded>  (1530) 
5CMS_0_B_δ,5CB5_0_D_δ

>  <ref_pdb>  (1530) 
nan

>  <smiles>  (1530) 
NC1NCNC2NCNC12

>  <submitter_email>  (1530) 
nan

>  <disregarded>  (1530) 


>  <LE>  (1530) 
-0.165574

>  <submitter_institution>  (1530) 
nan

>  <ref_mols>  (1530) 
5CMS_0_B,5CB5_0_D

>  <N_constrained_atoms>  (1530) 
10.0

>  <ref_url>  (1530) 
nan

>  <method>  (1530) 
nan

>  <comRMSD>  (1530) 
nan

>  <N_unconstrained_atoms>  (1530) 
0.0

>  <∆∆G>  (1530) 
-1.655739

>  <runtime>  (1530) 
21.2022

>  <generation_date>  (1530) 
nan

$$$$
5CB5_0_A_α-mArh-5cb5_C_0_C_α
     RDKit          3D

  9  9  0  0  0  0  0  0  0  0999 V2000
   -1.9980   21.9270   -8.2670 C   0  0  0  0  0  0  0  0  0  0  0  0
   -3.4530   22.0780   -8.6710 C   0  0  1  0  0  0  0  0  0  0  0  0
   -4.2190   21.3310   -7.7390 O   0  0  0  0  0  0  0  0  0  0  0  0
   -3.9880   23.5080   -8.5960 C   0  0  1  0  0  0  0  0  0  0  0  0
   -4.2340   24.0870   -9.8630 O   0  0  0  0  0  0  0  0  0  0  0  0
   -5.4950   21.9310   -7.5990 C   0  0  2  0  0  0  0  0  0  0  0  0
   -5.3420   23.4090   -7.8830 C   0  0  1  0  0  0  0  0  0  0  0  0
   -5.9090   21.7320   -6.2460 O   0  0  0  0  0  0  0  0  0  0  0  0
   -5.4520   24.2040   -6.7110 O   0  0  0  0  0  0  0  0  0  0  0  0
  2  1  1  1
  2  3  1  0
  2  4  1  0
  4  5  1  6
  3  6  1  0
  4  7  1  0
  6  7  1  0
  6  8  1  1
  7  9  1  1
M  END
>  <%Rank>  (1531) 
nan

>  <N_hits>  (1531) 
2

>  <submitter_name>  (1531) 
nan

>  <original SMILES>  (1531) 
nan

>  <∆G_unbound>  (1531) 
0.037019

>  <∆G_bound>  (1531) 
-6.374782

>  <regarded>  (1531) 
5CB5_0_A_α,mArh-5cb5_C_0_C_α

>  <ref_pdb>  (1531) 
nan

>  <smiles>  (1531) 
CC1OC(O)C(O)C1O

>  <submitter_email>  (1531) 
nan

>  <disregarded>  (1531) 


>  <LE>  (1531) 
-0.712422

>  <submitter_institution>  (1531) 
nan

>  <ref_mols>  (1531) 
5CB5_0_A,mArh-5cb5_C_0_C

>  <N_constrained_atoms>  (1531) 
9.0

>  <ref_url>  (1531) 
nan

>  <method>  (1531) 
nan

>  <comRMSD>  (1531) 
nan

>  <N_unconstrained_atoms>  (1531) 
0.0

>  <∆∆G>  (1531) 
-6.411801

>  <runtime>  (1531) 
20.250275

>  <generation_date>  (1531) 
nan

$$$$
5CB5_0_R_γ-5CMS_0_P_γ
     RDKit          3D

  8  8  0  0  0  0  0  0  0  0999 V2000
   -0.7470   12.4330   -4.1190 O   0  0  0  0  0  0  0  0  0  0  0  0
   -0.9600   13.8420   -4.1780 C   0  0  1  0  0  0  0  0  0  0  0  0
   -0.7000   14.5320   -2.8400 C   0  0  0  0  0  0  0  0  0  0  0  0
    0.0950   14.4950   -5.0380 C   0  0  2  0  0  0  0  0  0  0  0  0
    1.3600   13.8810   -4.8370 O   0  0  0  0  0  0  0  0  0  0  0  0
   -0.0370   15.7870   -3.1340 O   0  0  0  0  0  0  0  0  0  0  0  0
   -0.0910   15.9300   -4.5580 C   0  0  1  0  0  0  0  0  0  0  0  0
    0.8570   17.0080   -5.0540 C   0  0  0  0  0  0  0  0  0  0  0  0
  2  1  1  1
  2  3  1  0
  2  4  1  0
  4  5  1  1
  3  6  1  0
  4  7  1  0
  6  7  1  0
  7  8  1  6
M  END
>  <%Rank>  (1532) 
nan

>  <N_hits>  (1532) 
2

>  <submitter_name>  (1532) 
nan

>  <original SMILES>  (1532) 
nan

>  <∆G_unbound>  (1532) 
0.021216

>  <∆G_bound>  (1532) 
-2.825045

>  <regarded>  (1532) 
5CB5_0_R_γ,5CMS_0_P_γ

>  <ref_pdb>  (1532) 
nan

>  <smiles>  (1532) 
CC1OCC(O)C1O

>  <submitter_email>  (1532) 
nan

>  <disregarded>  (1532) 


>  <LE>  (1532) 
-0.355783

>  <submitter_institution>  (1532) 
nan

>  <ref_mols>  (1532) 
5CB5_0_R,5CMS_0_P

>  <N_constrained_atoms>  (1532) 
8.0

>  <ref_url>  (1532) 
nan

>  <method>  (1532) 
nan

>  <comRMSD>  (1532) 
nan

>  <N_unconstrained_atoms>  (1532) 
0.0

>  <∆∆G>  (1532) 
-2.846261

>  <runtime>  (1532) 
18.345666

>  <generation_date>  (1532) 
nan

$$$$
5CMS_0_L_α-5CMS_0_F_α
     RDKit          3D

 10 10  0  0  0  0  0  0  0  0999 V2000
   -1.2340   22.4120   -8.3150 C   0  0  0  0  0  0  0  0  0  0  0  0
   -1.5380   22.1360   -9.7780 C   0  0  1  0  0  0  0  0  0  0  0  0
   -2.7850   21.4140   -9.8790 O   0  0  0  0  0  0  0  0  0  0  0  0
   -1.7290   23.3440  -10.6950 C   0  0  0  0  0  0  0  0  0  0  0  0
   -1.5070   23.0630  -12.0350 O   0  0  0  0  0  0  0  0  0  0  0  0
   -0.9320   24.5030  -10.4400 O   0  0  0  0  0  0  0  0  0  0  0  0
   -3.8190   22.3480  -10.1900 C   0  0  2  0  0  0  0  0  0  0  0  0
   -3.1690   23.6960  -10.3840 C   0  0  2  0  0  0  0  0  0  0  0  0
   -4.6880   22.4150   -9.0710 O   0  0  0  0  0  0  0  0  0  0  0  0
   -3.7280   24.5030  -11.4310 O   0  0  0  0  0  0  0  0  0  0  0  0
  2  1  1  1
  2  3  1  0
  2  4  1  0
  4  5  1  0
  4  6  1  0
  3  7  1  0
  4  8  1  0
  7  8  1  0
  7  9  1  1
  8 10  1  6
M  END
>  <%Rank>  (1533) 
nan

>  <N_hits>  (1533) 
2

>  <submitter_name>  (1533) 
nan

>  <original SMILES>  (1533) 
nan

>  <∆G_unbound>  (1533) 
0.056816

>  <∆G_bound>  (1533) 
-1.395306

>  <regarded>  (1533) 
5CMS_0_L_α,5CMS_0_F_α

>  <ref_pdb>  (1533) 
nan

>  <smiles>  (1533) 
CC1OC(O)C(O)C1(O)O

>  <submitter_email>  (1533) 
nan

>  <disregarded>  (1533) 


>  <LE>  (1533) 
-0.145212

>  <submitter_institution>  (1533) 
nan

>  <ref_mols>  (1533) 
5CMS_0_L,5CMS_0_F

>  <N_constrained_atoms>  (1533) 
10.0

>  <ref_url>  (1533) 
nan

>  <method>  (1533) 
nan

>  <comRMSD>  (1533) 
nan

>  <N_unconstrained_atoms>  (1533) 
0.0

>  <∆∆G>  (1533) 
-1.452122

>  <runtime>  (1533) 
24.268738

>  <generation_date>  (1533) 
nan

$$$$
mArh-6mea_B_0_B_α-mArh-5cb5_D_0_D_α
     RDKit          3D

  9  9  0  0  0  0  0  0  0  0999 V2000
   -1.8900   22.1140   -7.9630 C   0  0  0  0  0  0  0  0  0  0  0  0
   -3.3830   22.1810   -8.2390 C   0  0  1  0  0  0  0  0  0  0  0  0
   -4.0690   21.3810   -7.2720 O   0  0  0  0  0  0  0  0  0  0  0  0
   -3.9600   23.5930   -8.1140 C   0  0  1  0  0  0  0  0  0  0  0  0
   -4.2800   24.1630   -9.3700 O   0  0  0  0  0  0  0  0  0  0  0  0
   -5.3670   21.9310   -7.1110 C   0  0  2  0  0  0  0  0  0  0  0  0
   -5.2730   23.4310   -7.3620 C   0  0  1  0  0  0  0  0  0  0  0  0
   -5.7980   21.6650   -5.7770 O   0  0  0  0  0  0  0  0  0  0  0  0
   -5.3980   24.2390   -6.2050 O   0  0  0  0  0  0  0  0  0  0  0  0
  2  1  1  1
  2  3  1  0
  2  4  1  0
  4  5  1  6
  3  6  1  0
  4  7  1  0
  6  7  1  0
  6  8  1  1
  7  9  1  1
M  END
>  <%Rank>  (1534) 
nan

>  <N_hits>  (1534) 
2

>  <submitter_name>  (1534) 
nan

>  <original SMILES>  (1534) 
nan

>  <∆G_unbound>  (1534) 
0.037019

>  <∆G_bound>  (1534) 
-6.869933

>  <regarded>  (1534) 
mArh-6mea_B_0_B_α,mArh-5cb5_D_0_D_α

>  <ref_pdb>  (1534) 
nan

>  <smiles>  (1534) 
CC1OC(O)C(O)C1O

>  <submitter_email>  (1534) 
nan

>  <disregarded>  (1534) 


>  <LE>  (1534) 
-0.767439

>  <submitter_institution>  (1534) 
nan

>  <ref_mols>  (1534) 
mArh-6mea_B_0_B,mArh-5cb5_D_0_D

>  <N_constrained_atoms>  (1534) 
9.0

>  <ref_url>  (1534) 
nan

>  <method>  (1534) 
nan

>  <comRMSD>  (1534) 
nan

>  <N_unconstrained_atoms>  (1534) 
0.0

>  <∆∆G>  (1534) 
-6.906952

>  <runtime>  (1534) 
18.515422

>  <generation_date>  (1534) 
nan

$$$$
mArh-6mea_A_0_A_γ-5CMS_0_R_δ
     RDKit          3D

 17 19  0  0  0  0  0  0  0  0999 V2000
   -1.4500   12.6930   -3.7600 O   0  0  0  0  0  0  0  0  0  0  0  0
   -0.5230   13.7390   -3.4870 C   0  0  2  0  0  0  0  0  0  0  0  0
   -1.0670   14.9520   -2.7080 C   0  0  2  0  0  0  0  0  0  0  0  0
   -0.0000   14.3100   -4.8080 C   0  0  2  0  0  0  0  0  0  0  0  0
    1.3350   13.8880   -5.0430 O   0  0  0  0  0  0  0  0  0  0  0  0
   -0.3960   16.0920   -3.2820 O   0  0  0  0  0  0  0  0  0  0  0  0
   -0.2280   15.8200   -4.6800 C   0  0  1  0  0  0  0  0  0  0  0  0
   -0.8860   15.1120   -1.1670 C   0  0  1  0  0  0  0  0  0  0  0  0
   -2.6090   15.0490   -2.8670 C   0  0  0  0  0  0  0  0  0  0  0  0
    0.8560   16.7440   -5.2080 C   0  0  0  0  0  0  0  0  0  0  0  0
   -2.3190   15.4770   -0.7110 C   0  0  1  0  0  0  0  0  0  0  0  0
   -3.1960   14.6850   -1.5620 N   0  0  0  0  0  0  0  0  0  0  0  0
   -0.2340   14.0710   -0.3670 N   0  0  0  0  0  0  0  0  0  0  0  0
   -0.2770   14.3690    1.0530 C   0  0  0  0  0  0  0  0  0  0  0  0
   -2.4450   15.4220    0.8330 C   0  0  1  0  0  0  0  0  0  0  0  0
   -3.8120   15.2540    1.2910 N   0  0  0  0  0  0  0  0  0  0  0  0
   -1.6400   14.4420    1.5100 N   0  0  0  0  0  0  0  0  0  0  0  0
  2  1  1  6
  2  3  1  0
  2  4  1  0
  4  5  1  1
  3  6  1  0
  4  7  1  0
  6  7  1  0
  3  8  1  0
  3  9  1  1
  7 10  1  1
  8 11  1  0
  9 12  1  0
 11 12  1  6
  8 13  1  1
 13 14  1  0
 11 15  1  0
 15 16  1  6
 14 17  1  0
 15 17  1  0
M  END
>  <%Rank>  (1535) 
nan

>  <N_hits>  (1535) 
2

>  <submitter_name>  (1535) 
nan

>  <original SMILES>  (1535) 
nan

>  <∆G_unbound>  (1535) 
0.631637

>  <∆G_bound>  (1535) 
-3.974054

>  <regarded>  (1535) 
mArh-6mea_A_0_A_γ,5CMS_0_R_δ

>  <ref_pdb>  (1535) 
nan

>  <smiles>  (1535) 
CC1OC2(CNC3C(N)NCNC32)C(O)C1O

>  <submitter_email>  (1535) 
nan

>  <disregarded>  (1535) 


>  <LE>  (1535) 
-0.270923

>  <submitter_institution>  (1535) 
nan

>  <ref_mols>  (1535) 
mArh-6mea_A_0_A,5CMS_0_R

>  <N_constrained_atoms>  (1535) 
17.0

>  <ref_url>  (1535) 
nan

>  <method>  (1535) 
nan

>  <comRMSD>  (1535) 
nan

>  <N_unconstrained_atoms>  (1535) 
0.0

>  <∆∆G>  (1535) 
-4.60569

>  <runtime>  (1535) 
24.037166

>  <generation_date>  (1535) 
nan

$$$$
5MQX_0_A_δ-mArh-mac-120_0_A_α
     RDKit          3D

 11 12  0  0  0  0  0  0  0  0999 V2000
   -4.3620   15.4980    2.1010 N   0  0  0  0  0  0  0  0  0  0  0  0
   -3.2090   15.4350    1.2460 C   0  0  2  0  0  0  0  0  0  0  0  0
   -3.4000   14.8230   -0.1290 C   0  0  1  0  0  0  0  0  0  0  0  0
   -2.1780   14.7970    1.9800 N   0  0  0  0  0  0  0  0  0  0  0  0
   -2.3260   13.7610   -0.1950 C   0  0  1  0  0  0  0  0  0  0  0  0
   -4.5350   14.0620   -0.6550 N   0  0  0  0  0  0  0  0  0  0  0  0
   -0.8610   14.7530    1.3670 C   0  0  0  0  0  0  0  0  0  0  0  0
   -5.7350   14.7840   -1.1060 C   0  0  0  0  0  0  0  0  0  0  0  0
   -2.4830   13.2750   -1.5410 N   0  0  0  0  0  0  0  0  0  0  0  0
   -3.9460   13.1740   -1.6570 C   0  0  0  0  0  0  0  0  0  0  0  0
   -0.9530   14.1000    0.1010 N   0  0  0  0  0  0  0  0  0  0  0  0
  2  1  1  1
  2  3  1  0
  2  4  1  0
  3  5  1  0
  3  6  1  1
  4  7  1  0
  6  8  1  0
  5  9  1  6
  6 10  1  0
  9 10  1  0
  5 11  1  0
  7 11  1  0
M  END
>  <%Rank>  (1536) 
nan

>  <N_hits>  (1536) 
2

>  <submitter_name>  (1536) 
nan

>  <original SMILES>  (1536) 
nan

>  <∆G_unbound>  (1536) 
0.248078

>  <∆G_bound>  (1536) 
-1.242938

>  <regarded>  (1536) 
5MQX_0_A_δ,mArh-mac-120_0_A_α

>  <ref_pdb>  (1536) 
nan

>  <smiles>  (1536) 
CN1CNC2NCNC(N)C21

>  <submitter_email>  (1536) 
nan

>  <disregarded>  (1536) 


>  <LE>  (1536) 
-0.135547

>  <submitter_institution>  (1536) 
nan

>  <ref_mols>  (1536) 
5MQX_0_A,mArh-mac-120_0_A

>  <N_constrained_atoms>  (1536) 
11.0

>  <ref_url>  (1536) 
nan

>  <method>  (1536) 
nan

>  <comRMSD>  (1536) 
nan

>  <N_unconstrained_atoms>  (1536) 
0.0

>  <∆∆G>  (1536) 
-1.491015

>  <runtime>  (1536) 
22.332134

>  <generation_date>  (1536) 
nan

$$$$
5CMS_0_B_α-5CMS_0_R_α
     RDKit          3D

 10 10  0  0  0  0  0  0  0  0999 V2000
   -4.0360   21.9010   -9.4400 C   0  0  0  0  0  0  0  0  0  0  0  0
   -4.8420   22.6070  -10.5060 C   0  0  1  0  0  0  0  0  0  0  0  0
   -4.8920   24.0450  -10.2540 N   0  0  0  0  0  0  0  0  0  0  0  0
   -4.2620   22.4860  -11.9400 C   0  0  2  0  0  0  0  0  0  0  0  0
   -2.9040   22.0760  -12.0220 O   0  0  0  0  0  0  0  0  0  0  0  0
   -4.3450   24.2330   -8.9230 O   0  0  0  0  0  0  0  0  0  0  0  0
   -4.0940   24.6990  -11.2890 C   0  0  2  0  0  0  0  0  0  0  0  0
   -4.4710   23.8890  -12.4970 C   0  0  2  0  0  0  0  0  0  0  0  0
   -2.6950   24.6030  -11.0670 O   0  0  0  0  0  0  0  0  0  0  0  0
   -5.8070   24.0830  -12.9480 O   0  0  0  0  0  0  0  0  0  0  0  0
  2  1  1  1
  2  3  1  0
  2  4  1  0
  4  5  1  1
  3  6  1  0
  3  7  1  0
  4  8  1  0
  7  8  1  0
  7  9  1  1
  8 10  1  1
M  END
>  <%Rank>  (1537) 
nan

>  <N_hits>  (1537) 
2

>  <submitter_name>  (1537) 
nan

>  <original SMILES>  (1537) 
nan

>  <∆G_unbound>  (1537) 
0.073315

>  <∆G_bound>  (1537) 
-1.146965

>  <regarded>  (1537) 
5CMS_0_B_α,5CMS_0_R_α

>  <ref_pdb>  (1537) 
nan

>  <smiles>  (1537) 
CC1C(O)C(O)C(O)N1O

>  <submitter_email>  (1537) 
nan

>  <disregarded>  (1537) 


>  <LE>  (1537) 
-0.122028

>  <submitter_institution>  (1537) 
nan

>  <ref_mols>  (1537) 
5CMS_0_B,5CMS_0_R

>  <N_constrained_atoms>  (1537) 
10.0

>  <ref_url>  (1537) 
nan

>  <method>  (1537) 
nan

>  <comRMSD>  (1537) 
nan

>  <N_unconstrained_atoms>  (1537) 
0.0

>  <∆∆G>  (1537) 
-1.22028

>  <runtime>  (1537) 
33.050808

>  <generation_date>  (1537) 
nan

$$$$
5CB5_0_L_γ-5CMS_0_I_γ
     RDKit          3D

  8  8  0  0  0  0  0  0  0  0999 V2000
   -0.3370   12.3900   -3.8610 O   0  0  0  0  0  0  0  0  0  0  0  0
   -0.7900   13.7070   -4.1660 C   0  0  1  0  0  0  0  0  0  0  0  0
   -0.5960   14.6530   -2.9860 C   0  0  0  0  0  0  0  0  0  0  0  0
    0.0950   14.3320   -5.2200 C   0  0  2  0  0  0  0  0  0  0  0  0
    1.4260   13.8300   -5.1440 O   0  0  0  0  0  0  0  0  0  0  0  0
   -0.1210   15.9160   -3.5000 O   0  0  0  0  0  0  0  0  0  0  0  0
   -0.1240   15.8240   -4.9280 C   0  0  1  0  0  0  0  0  0  0  0  0
    0.8470   16.8400   -5.5060 C   0  0  0  0  0  0  0  0  0  0  0  0
  2  1  1  1
  2  3  1  0
  2  4  1  0
  4  5  1  1
  3  6  1  0
  4  7  1  0
  6  7  1  0
  7  8  1  6
M  END
>  <%Rank>  (1538) 
nan

>  <N_hits>  (1538) 
2

>  <submitter_name>  (1538) 
nan

>  <original SMILES>  (1538) 
nan

>  <∆G_unbound>  (1538) 
0.021216

>  <∆G_bound>  (1538) 
-2.796146

>  <regarded>  (1538) 
5CB5_0_L_γ,5CMS_0_I_γ

>  <ref_pdb>  (1538) 
nan

>  <smiles>  (1538) 
CC1OCC(O)C1O

>  <submitter_email>  (1538) 
nan

>  <disregarded>  (1538) 


>  <LE>  (1538) 
-0.35217

>  <submitter_institution>  (1538) 
nan

>  <ref_mols>  (1538) 
5CB5_0_L,5CMS_0_I

>  <N_constrained_atoms>  (1538) 
8.0

>  <ref_url>  (1538) 
nan

>  <method>  (1538) 
nan

>  <comRMSD>  (1538) 
nan

>  <N_unconstrained_atoms>  (1538) 
0.0

>  <∆∆G>  (1538) 
-2.817362

>  <runtime>  (1538) 
18.479279

>  <generation_date>  (1538) 
nan

$$$$
5CMS_0_E_δ-mArh-5cb5_E_0_E_γ
     RDKit          3D

 17 19  0  0  0  0  0  0  0  0999 V2000
   -3.7430   15.5430    1.6370 N   0  0  0  0  0  0  0  0  0  0  0  0
   -2.7740   14.7770    0.8720 C   0  0  1  0  0  0  0  0  0  0  0  0
   -2.5880   15.2540   -0.5780 C   0  0  1  0  0  0  0  0  0  0  0  0
   -1.5270   14.8040    1.6190 N   0  0  0  0  0  0  0  0  0  0  0  0
   -1.4330   14.4310   -1.1410 C   0  0  1  0  0  0  0  0  0  0  0  0
   -3.6920   15.0160   -1.5310 N   0  0  0  0  0  0  0  0  0  0  0  0
   -0.3770   15.3340    0.8730 C   0  0  0  0  0  0  0  0  0  0  0  0
   -1.5060   14.7300   -2.6680 C   0  0  1  0  0  0  0  0  0  0  0  0
   -3.0240   14.9710   -2.8610 C   0  0  0  0  0  0  0  0  0  0  0  0
   -0.2060   14.7190   -0.4210 N   0  0  0  0  0  0  0  0  0  0  0  0
   -0.7470   15.9540   -2.9870 O   0  0  0  0  0  0  0  0  0  0  0  0
   -0.8760   13.7070   -3.6510 C   0  0  1  0  0  0  0  0  0  0  0  0
   -1.6500   12.6230   -4.1150 O   0  0  0  0  0  0  0  0  0  0  0  0
   -0.5570   15.9610   -4.4170 C   0  0  2  0  0  0  0  0  0  0  0  0
   -0.3160   14.5070   -4.8270 C   0  0  1  0  0  0  0  0  0  0  0  0
    0.5410   16.9270   -4.8400 C   0  0  0  0  0  0  0  0  0  0  0  0
    1.0430   14.1480   -5.0500 O   0  0  0  0  0  0  0  0  0  0  0  0
  2  1  1  1
  2  3  1  0
  2  4  1  0
  3  5  1  0
  3  6  1  6
  4  7  1  0
  5  8  1  0
  6  9  1  0
  8  9  1  6
  5 10  1  1
  7 10  1  0
  8 11  1  0
  8 12  1  0
 12 13  1  6
 11 14  1  0
 12 15  1  0
 14 15  1  0
 14 16  1  1
 15 17  1  1
M  END
>  <%Rank>  (1539) 
nan

>  <N_hits>  (1539) 
2

>  <submitter_name>  (1539) 
nan

>  <original SMILES>  (1539) 
nan

>  <∆G_unbound>  (1539) 
0.690665

>  <∆G_bound>  (1539) 
-3.042779

>  <regarded>  (1539) 
5CMS_0_E_δ,mArh-5cb5_E_0_E_γ

>  <ref_pdb>  (1539) 
nan

>  <smiles>  (1539) 
CC1OC2(CNC3C(N)NCNC32)C(O)C1O

>  <submitter_email>  (1539) 
nan

>  <disregarded>  (1539) 


>  <LE>  (1539) 
-0.219614

>  <submitter_institution>  (1539) 
nan

>  <ref_mols>  (1539) 
5CMS_0_E,mArh-5cb5_E_0_E

>  <N_constrained_atoms>  (1539) 
17.0

>  <ref_url>  (1539) 
nan

>  <method>  (1539) 
nan

>  <comRMSD>  (1539) 
nan

>  <N_unconstrained_atoms>  (1539) 
0.0

>  <∆∆G>  (1539) 
-3.733444

>  <runtime>  (1539) 
25.254143

>  <generation_date>  (1539) 
nan

$$$$
5CMS_0_A_γ-mArh-5cms_D_3_D_β
     RDKit          3D

  8  8  0  0  0  0  0  0  0  0999 V2000
   -0.4720   11.9710   -4.0020 O   0  0  0  0  0  0  0  0  0  0  0  0
   -0.8980   13.3160   -4.2200 C   0  0  1  0  0  0  0  0  0  0  0  0
   -0.7450   14.1650   -2.9590 C   0  0  0  0  0  0  0  0  0  0  0  0
    0.0430   14.0100   -5.1810 C   0  0  2  0  0  0  0  0  0  0  0  0
    1.3680   13.5130   -5.0390 O   0  0  0  0  0  0  0  0  0  0  0  0
   -0.2430   15.4580   -3.3630 O   0  0  0  0  0  0  0  0  0  0  0  0
   -0.2240   15.4660   -4.7950 C   0  0  1  0  0  0  0  0  0  0  0  0
    0.7200   16.5460   -5.2950 C   0  0  0  0  0  0  0  0  0  0  0  0
  2  1  1  1
  2  3  1  0
  2  4  1  0
  4  5  1  1
  3  6  1  0
  4  7  1  0
  6  7  1  0
  7  8  1  1
M  END
>  <%Rank>  (1540) 
nan

>  <N_hits>  (1540) 
2

>  <submitter_name>  (1540) 
nan

>  <original SMILES>  (1540) 
nan

>  <∆G_unbound>  (1540) 
0.021216

>  <∆G_bound>  (1540) 
-2.952468

>  <regarded>  (1540) 
5CMS_0_A_γ,mArh-5cms_D_3_D_β

>  <ref_pdb>  (1540) 
nan

>  <smiles>  (1540) 
CC1OCC(O)C1O

>  <submitter_email>  (1540) 
nan

>  <disregarded>  (1540) 


>  <LE>  (1540) 
-0.371711

>  <submitter_institution>  (1540) 
nan

>  <ref_mols>  (1540) 
5CMS_0_A,mArh-5cms_D_3_D

>  <N_constrained_atoms>  (1540) 
8.0

>  <ref_url>  (1540) 
nan

>  <method>  (1540) 
nan

>  <comRMSD>  (1540) 
nan

>  <N_unconstrained_atoms>  (1540) 
0.0

>  <∆∆G>  (1540) 
-2.973684

>  <runtime>  (1540) 
17.961137

>  <generation_date>  (1540) 
nan

$$$$
2BFQ_1_A_α-5CMS_0_E_α
     RDKit          3D

 16 18  0  0  0  0  0  0  0  0999 V2000
   -2.8240   22.0330   -9.2860 C   0  0  0  0  0  0  0  0  0  0  0  0
   -3.8870   22.1180   -8.2910 C   0  0  1  0  0  0  0  0  0  0  0  0
   -3.7550   21.4370   -7.0800 O   0  0  0  0  0  0  0  0  0  0  0  0
   -3.6450   22.3680  -10.4840 C   0  0  1  0  0  0  0  0  0  0  0  0
   -4.0520   23.5590   -7.9790 C   0  0  1  0  0  0  0  0  0  0  0  0
   -4.2560   23.6920  -10.4410 N   0  0  0  0  0  0  0  0  0  0  0  0
   -2.9680   22.4080  -11.8380 C   0  0  2  0  0  0  0  0  0  0  0  0
   -4.5850   24.2530   -9.0990 O   0  0  0  0  0  0  0  0  0  0  0  0
   -2.1120   21.4130  -12.1490 O   0  0  0  0  0  0  0  0  0  0  0  0
   -4.8340   22.0300   -6.3510 C   0  0  1  0  0  0  0  0  0  0  0  0
   -5.1310   23.3990   -6.9640 C   0  0  1  0  0  0  0  0  0  0  0  0
   -3.0200   24.3750  -10.7570 C   0  0  0  0  0  0  0  0  0  0  0  0
   -2.2930   23.7510  -11.8270 C   0  0  1  0  0  0  0  0  0  0  0  0
   -6.0330   21.2980   -6.4610 O   0  0  0  0  0  0  0  0  0  0  0  0
   -5.2260   24.3660   -5.9350 O   0  0  0  0  0  0  0  0  0  0  0  0
   -0.9040   23.7600  -11.5190 O   0  0  0  0  0  0  0  0  0  0  0  0
  2  1  1  6
  2  3  1  0
  4  1  1  1
  2  5  1  0
  4  6  1  0
  4  7  1  0
  5  8  1  6
  6  8  1  0
  7  9  1  1
  3 10  1  0
  5 11  1  0
 10 11  1  0
  6 12  1  0
  7 13  1  0
 12 13  1  0
 10 14  1  6
 11 15  1  1
 13 16  1  1
M  END
>  <%Rank>  (1541) 
nan

>  <N_hits>  (1541) 
2

>  <submitter_name>  (1541) 
nan

>  <original SMILES>  (1541) 
nan

>  <∆G_unbound>  (1541) 
0.829627

>  <∆G_bound>  (1541) 
-2.831206

>  <regarded>  (1541) 
2BFQ_1_A_α,5CMS_0_E_α

>  <ref_pdb>  (1541) 
nan

>  <smiles>  (1541) 
OC1CN2OC3C(CC2C1O)OC(O)C3O

>  <submitter_email>  (1541) 
nan

>  <disregarded>  (1541) 


>  <LE>  (1541) 
-0.228802

>  <submitter_institution>  (1541) 
nan

>  <ref_mols>  (1541) 
2BFQ_1_A,5CMS_0_E

>  <N_constrained_atoms>  (1541) 
16.0

>  <ref_url>  (1541) 
nan

>  <method>  (1541) 
nan

>  <comRMSD>  (1541) 
nan

>  <N_unconstrained_atoms>  (1541) 
0.0

>  <∆∆G>  (1541) 
-3.660834

>  <runtime>  (1541) 
26.341124

>  <generation_date>  (1541) 
nan

$$$$
5L9K_0_A_α-mArh-5dus_0_A_α
     RDKit          3D

 10 10  0  0  0  0  0  0  0  0999 V2000
   -2.4440   22.1590   -8.1320 C   0  0  0  0  0  0  0  0  0  0  0  0
   -3.8530   21.8350   -8.6490 C   0  0  1  0  0  0  0  0  0  0  0  0
   -4.6970   21.0130   -7.7190 N   0  0  0  0  0  0  0  0  0  0  0  0
   -4.7840   23.0500   -8.8120 C   0  0  2  0  0  0  0  0  0  0  0  0
   -4.2870   24.1950   -9.4330 O   0  0  0  0  0  0  0  0  0  0  0  0
   -3.9930   20.6900   -6.4930 O   0  0  0  0  0  0  0  0  0  0  0  0
   -5.7700   21.8650   -7.2760 C   0  0  2  0  0  0  0  0  0  0  0  0
   -5.1330   23.2310   -7.3560 C   0  0  2  0  0  0  0  0  0  0  0  0
   -6.1540   21.5810   -5.9620 O   0  0  0  0  0  0  0  0  0  0  0  0
   -6.0220   24.2900   -7.0430 O   0  0  0  0  0  0  0  0  0  0  0  0
  2  1  1  1
  2  3  1  0
  2  4  1  0
  4  5  1  1
  3  6  1  0
  3  7  1  0
  4  8  1  0
  7  8  1  0
  7  9  1  1
  8 10  1  6
M  END
>  <%Rank>  (1542) 
nan

>  <N_hits>  (1542) 
2

>  <submitter_name>  (1542) 
nan

>  <original SMILES>  (1542) 
nan

>  <∆G_unbound>  (1542) 
0.073315

>  <∆G_bound>  (1542) 
-4.867857

>  <regarded>  (1542) 
5L9K_0_A_α,mArh-5dus_0_A_α

>  <ref_pdb>  (1542) 
nan

>  <smiles>  (1542) 
CC1C(O)C(O)C(O)N1O

>  <submitter_email>  (1542) 
nan

>  <disregarded>  (1542) 


>  <LE>  (1542) 
-0.494117

>  <submitter_institution>  (1542) 
nan

>  <ref_mols>  (1542) 
5L9K_0_A,mArh-5dus_0_A

>  <N_constrained_atoms>  (1542) 
10.0

>  <ref_url>  (1542) 
nan

>  <method>  (1542) 
nan

>  <comRMSD>  (1542) 
nan

>  <N_unconstrained_atoms>  (1542) 
0.0

>  <∆∆G>  (1542) 
-4.941172

>  <runtime>  (1542) 
21.841808

>  <generation_date>  (1542) 
nan

$$$$
5CB5_0_N_δ-mArh-mac-242_0_A_α
     RDKit          3D

 10 11  0  0  0  0  0  0  0  0999 V2000
   -3.8250   15.2360    1.9380 N   0  0  0  0  0  0  0  0  0  0  0  0
   -2.6470   15.3250    1.1030 C   0  0  2  0  0  0  0  0  0  0  0  0
   -2.9340   14.7090   -0.2650 C   0  0  2  0  0  0  0  0  0  0  0  0
   -1.5430   14.7050    1.7950 N   0  0  0  0  0  0  0  0  0  0  0  0
   -1.5810   14.4010   -0.9280 C   0  0  1  0  0  0  0  0  0  0  0  0
   -3.6910   15.4910   -1.2410 N   0  0  0  0  0  0  0  0  0  0  0  0
   -0.2990   14.5650    1.0500 C   0  0  0  0  0  0  0  0  0  0  0  0
   -1.7230   14.8140   -2.3060 N   0  0  0  0  0  0  0  0  0  0  0  0
   -3.1490   15.0290   -2.5060 C   0  0  0  0  0  0  0  0  0  0  0  0
   -0.4420   15.0140   -0.3060 N   0  0  0  0  0  0  0  0  0  0  0  0
  2  1  1  1
  2  3  1  0
  2  4  1  0
  3  5  1  0
  3  6  1  6
  4  7  1  0
  5  8  1  6
  6  9  1  0
  8  9  1  0
  5 10  1  0
  7 10  1  0
M  END
>  <%Rank>  (1543) 
nan

>  <N_hits>  (1543) 
2

>  <submitter_name>  (1543) 
nan

>  <original SMILES>  (1543) 
nan

>  <∆G_unbound>  (1543) 
0.213408

>  <∆G_bound>  (1543) 
-0.987211

>  <regarded>  (1543) 
5CB5_0_N_δ,mArh-mac-242_0_A_α

>  <ref_pdb>  (1543) 
nan

>  <smiles>  (1543) 
NC1NCNC2NCNC12

>  <submitter_email>  (1543) 
nan

>  <disregarded>  (1543) 


>  <LE>  (1543) 
-0.120062

>  <submitter_institution>  (1543) 
nan

>  <ref_mols>  (1543) 
5CB5_0_N,mArh-mac-242_0_A

>  <N_constrained_atoms>  (1543) 
10.0

>  <ref_url>  (1543) 
nan

>  <method>  (1543) 
nan

>  <comRMSD>  (1543) 
nan

>  <N_unconstrained_atoms>  (1543) 
0.0

>  <∆∆G>  (1543) 
-1.20062

>  <runtime>  (1543) 
22.371723

>  <generation_date>  (1543) 
nan

$$$$
mArh-5cms_I_8_I_α-mArh-5cb5_J_2_J_α
     RDKit          3D

 16 18  0  0  0  0  0  0  0  0999 V2000
   -2.1090   22.6660   -8.0300 C   0  0  0  0  0  0  0  0  0  0  0  0
   -2.7870   22.5910   -9.3470 C   0  0  1  0  0  0  0  0  0  0  0  0
   -3.8080   21.6380   -9.5850 C   0  0  2  0  0  0  0  0  0  0  0  0
   -3.3160   22.6930   -7.2130 C   0  0  2  0  0  0  0  0  0  0  0  0
   -3.5770   23.7700   -9.9310 C   0  0  2  0  0  0  0  0  0  0  0  0
   -4.1450   21.5830   -7.5310 O   0  0  0  0  0  0  0  0  0  0  0  0
   -4.1300   23.9130   -7.5720 C   0  0  1  0  0  0  0  0  0  0  0  0
   -3.0410   21.2190  -10.7010 O   0  0  0  0  0  0  0  0  0  0  0  0
   -4.4210   24.2790   -8.9260 O   0  0  0  0  0  0  0  0  0  0  0  0
   -4.5290   23.2570  -10.9800 C   0  0  2  0  0  0  0  0  0  0  0  0
   -5.4170   21.9890   -7.0660 C   0  0  2  0  0  0  0  0  0  0  0  0
   -5.3960   23.5130   -6.9170 C   0  0  2  0  0  0  0  0  0  0  0  0
   -5.1280   22.3570   -9.9770 C   0  0  0  0  0  0  0  0  0  0  0  0
   -3.9340   22.5150  -12.0490 O   0  0  0  0  0  0  0  0  0  0  0  0
   -5.6280   21.4150   -5.7940 O   0  0  0  0  0  0  0  0  0  0  0  0
   -6.5090   24.1120   -7.5640 O   0  0  0  0  0  0  0  0  0  0  0  0
  2  1  1  1
  2  3  1  0
  4  1  1  6
  2  5  1  0
  4  6  1  0
  4  7  1  0
  3  8  1  6
  5  9  1  1
  7  9  1  6
  5 10  1  0
  6 11  1  0
  7 12  1  0
 11 12  1  0
  3 13  1  0
 10 13  1  0
 10 14  1  6
 11 15  1  1
 12 16  1  6
M  END
>  <%Rank>  (1544) 
nan

>  <N_hits>  (1544) 
2

>  <submitter_name>  (1544) 
nan

>  <original SMILES>  (1544) 
nan

>  <∆G_unbound>  (1544) 
0.268442

>  <∆G_bound>  (1544) 
-0.626389

>  <regarded>  (1544) 
mArh-5cms_I_8_I_α,mArh-5cb5_J_2_J_α

>  <ref_pdb>  (1544) 
nan

>  <smiles>  (1544) 
OC1CC(O)C2OC3C(CC12)OC(O)C3O

>  <submitter_email>  (1544) 
nan

>  <disregarded>  (1544) 


>  <LE>  (1544) 
-0.055927

>  <submitter_institution>  (1544) 
nan

>  <ref_mols>  (1544) 
mArh-5cms_I_8_I,mArh-5cb5_J_2_J

>  <N_constrained_atoms>  (1544) 
13.0

>  <ref_url>  (1544) 
nan

>  <method>  (1544) 
nan

>  <comRMSD>  (1544) 
nan

>  <N_unconstrained_atoms>  (1544) 
3.0

>  <∆∆G>  (1544) 
-0.89483

>  <runtime>  (1544) 
31.09767

>  <generation_date>  (1544) 
nan

$$$$
6WOJ_0_B_δ-mArh-5cms_I_8_I_γ
     RDKit          3D

 17 19  0  0  0  0  0  0  0  0999 V2000
   -3.8810   15.2980    1.4630 N   0  0  0  0  0  0  0  0  0  0  0  0
   -2.7900   14.6060    0.8010 C   0  0  1  0  0  0  0  0  0  0  0  0
   -2.5270   15.0630   -0.6440 C   0  0  1  0  0  0  0  0  0  0  0  0
   -1.6350   14.9050    1.6100 N   0  0  0  0  0  0  0  0  0  0  0  0
   -1.3360   14.2630   -1.1630 C   0  0  1  0  0  0  0  0  0  0  0  0
   -3.5560   14.8620   -1.6660 N   0  0  0  0  0  0  0  0  0  0  0  0
   -0.4170   14.2660    1.1260 C   0  0  0  0  0  0  0  0  0  0  0  0
   -1.3310   14.6530   -2.6890 C   0  0  1  0  0  0  0  0  0  0  0  0
   -2.7790   15.1700   -2.8870 C   0  0  0  0  0  0  0  0  0  0  0  0
   -0.1830   14.5200   -0.2970 N   0  0  0  0  0  0  0  0  0  0  0  0
   -0.3590   15.7320   -2.9670 O   0  0  0  0  0  0  0  0  0  0  0  0
   -0.9550   13.6140   -3.7750 C   0  0  1  0  0  0  0  0  0  0  0  0
   -1.9900   12.8170   -4.3130 O   0  0  0  0  0  0  0  0  0  0  0  0
   -0.3350   15.8350   -4.4050 C   0  0  2  0  0  0  0  0  0  0  0  0
   -0.2580   14.3930   -4.8980 C   0  0  1  0  0  0  0  0  0  0  0  0
    0.7750   16.7370   -4.9180 C   0  0  0  0  0  0  0  0  0  0  0  0
    1.0570   13.8960   -5.1230 O   0  0  0  0  0  0  0  0  0  0  0  0
  2  1  1  1
  2  3  1  0
  2  4  1  0
  3  5  1  0
  3  6  1  6
  4  7  1  0
  5  8  1  0
  6  9  1  0
  8  9  1  6
  5 10  1  1
  7 10  1  0
  8 11  1  0
  8 12  1  0
 12 13  1  6
 11 14  1  0
 12 15  1  0
 14 15  1  0
 14 16  1  1
 15 17  1  1
M  END
>  <%Rank>  (1545) 
nan

>  <N_hits>  (1545) 
2

>  <submitter_name>  (1545) 
nan

>  <original SMILES>  (1545) 
nan

>  <∆G_unbound>  (1545) 
0.690665

>  <∆G_bound>  (1545) 
-3.427665

>  <regarded>  (1545) 
6WOJ_0_B_δ,mArh-5cms_I_8_I_γ

>  <ref_pdb>  (1545) 
nan

>  <smiles>  (1545) 
CC1OC2(CNC3C(N)NCNC32)C(O)C1O

>  <submitter_email>  (1545) 
nan

>  <disregarded>  (1545) 


>  <LE>  (1545) 
-0.242255

>  <submitter_institution>  (1545) 
nan

>  <ref_mols>  (1545) 
6WOJ_0_B,mArh-5cms_I_8_I

>  <N_constrained_atoms>  (1545) 
17.0

>  <ref_url>  (1545) 
nan

>  <method>  (1545) 
nan

>  <comRMSD>  (1545) 
nan

>  <N_unconstrained_atoms>  (1545) 
0.0

>  <∆∆G>  (1545) 
-4.11833

>  <runtime>  (1545) 
23.726993

>  <generation_date>  (1545) 
nan

$$$$
mArh-5cb5_M_1_M_γ-5CB5_0_F_δ
     RDKit          3D

 17 19  0  0  0  0  0  0  0  0999 V2000
   -0.9120   12.6650   -3.5410 O   0  0  0  0  0  0  0  0  0  0  0  0
   -0.3700   13.9760   -3.4760 C   0  0  2  0  0  0  0  0  0  0  0  0
   -1.1540   15.0330   -2.6660 C   0  0  2  0  0  0  0  0  0  0  0  0
   -0.2610   14.5460   -4.8880 C   0  0  2  0  0  0  0  0  0  0  0  0
    1.0210   14.2870   -5.4350 O   0  0  0  0  0  0  0  0  0  0  0  0
   -0.8380   16.2900   -3.3320 O   0  0  0  0  0  0  0  0  0  0  0  0
   -0.6210   16.0280   -4.7410 C   0  0  1  0  0  0  0  0  0  0  0  0
   -0.8650   15.2120   -1.1340 C   0  0  1  0  0  0  0  0  0  0  0  0
   -2.6920   14.7510   -2.6650 C   0  0  0  0  0  0  0  0  0  0  0  0
    0.3980   17.0130   -5.3060 C   0  0  0  0  0  0  0  0  0  0  0  0
   -2.2900   15.4140   -0.5640 C   0  0  1  0  0  0  0  0  0  0  0  0
   -3.1060   14.4420   -1.2750 N   0  0  0  0  0  0  0  0  0  0  0  0
   -0.0710   14.2040   -0.4040 N   0  0  0  0  0  0  0  0  0  0  0  0
   -0.1260   14.3050    1.0520 C   0  0  0  0  0  0  0  0  0  0  0  0
   -2.2280   15.3990    0.9700 C   0  0  1  0  0  0  0  0  0  0  0  0
   -3.5390   15.4010    1.6020 N   0  0  0  0  0  0  0  0  0  0  0  0
   -1.4800   14.3220    1.5260 N   0  0  0  0  0  0  0  0  0  0  0  0
  2  1  1  6
  2  3  1  0
  2  4  1  0
  4  5  1  1
  3  6  1  0
  4  7  1  0
  6  7  1  0
  3  8  1  0
  3  9  1  1
  7 10  1  1
  8 11  1  0
  9 12  1  0
 11 12  1  6
  8 13  1  1
 13 14  1  0
 11 15  1  0
 15 16  1  1
 14 17  1  0
 15 17  1  0
M  END
>  <%Rank>  (1546) 
nan

>  <N_hits>  (1546) 
2

>  <submitter_name>  (1546) 
nan

>  <original SMILES>  (1546) 
nan

>  <∆G_unbound>  (1546) 
0.631637

>  <∆G_bound>  (1546) 
-3.370779

>  <regarded>  (1546) 
mArh-5cb5_M_1_M_γ,5CB5_0_F_δ

>  <ref_pdb>  (1546) 
nan

>  <smiles>  (1546) 
CC1OC2(CNC3C(N)NCNC32)C(O)C1O

>  <submitter_email>  (1546) 
nan

>  <disregarded>  (1546) 


>  <LE>  (1546) 
-0.235436

>  <submitter_institution>  (1546) 
nan

>  <ref_mols>  (1546) 
mArh-5cb5_M_1_M,5CB5_0_F

>  <N_constrained_atoms>  (1546) 
17.0

>  <ref_url>  (1546) 
nan

>  <method>  (1546) 
nan

>  <comRMSD>  (1546) 
nan

>  <N_unconstrained_atoms>  (1546) 
0.0

>  <∆∆G>  (1546) 
-4.002416

>  <runtime>  (1546) 
25.459991

>  <generation_date>  (1546) 
nan

$$$$
5CMS_0_M_α-6WOJ_0_D_α
     RDKit          3D

 17 18  0  0  0  0  0  0  0  0999 V2000
   -2.5810   22.0060   -9.1940 C   0  0  0  0  0  0  0  0  0  0  0  0
   -3.1760   22.7410  -10.2910 C   0  0  2  0  0  0  0  0  0  0  0  0
   -3.3900   21.9730  -11.4390 O   0  0  0  0  0  0  0  0  0  0  0  0
   -3.1470   22.2900   -7.8290 C   0  0  2  0  0  0  0  0  0  0  0  0
   -2.2800   23.8100  -10.8410 C   0  0  1  0  0  0  0  0  0  0  0  0
   -3.8470   21.1800   -7.2310 O   0  0  0  0  0  0  0  0  0  0  0  0
   -4.1800   23.3550   -7.8470 C   0  0  2  0  0  0  0  0  0  0  0  0
   -1.1370   23.3420  -11.5660 O   0  0  0  0  0  0  0  0  0  0  0  0
   -3.6700   24.5840   -8.1120 O   0  0  0  0  0  0  0  0  0  0  0  0
   -4.0460   22.9760  -12.1890 C   0  0  2  0  0  0  0  0  0  0  0  0
   -3.3140   24.3150  -11.8230 C   0  0  2  0  0  0  0  0  0  0  0  0
   -4.9760   21.8090   -6.5920 C   0  0  2  0  0  0  0  0  0  0  0  0
   -4.5530   23.2490   -6.4360 C   0  0  2  0  0  0  0  0  0  0  0  0
   -5.3860   22.9870  -11.7410 O   0  0  0  0  0  0  0  0  0  0  0  0
   -2.6840   25.0020  -12.9000 O   0  0  0  0  0  0  0  0  0  0  0  0
   -5.2630   21.2370   -5.3490 O   0  0  0  0  0  0  0  0  0  0  0  0
   -5.5280   24.2070   -6.0820 O   0  0  0  0  0  0  0  0  0  0  0  0
  2  1  1  1
  2  3  1  0
  4  1  1  6
  2  5  1  0
  4  6  1  0
  4  7  1  0
  5  8  1  6
  7  9  1  1
  3 10  1  0
  5 11  1  0
 10 11  1  0
  6 12  1  0
  7 13  1  0
 12 13  1  0
 10 14  1  1
 11 15  1  6
 12 16  1  1
 13 17  1  6
M  END
>  <%Rank>  (1547) 
nan

>  <N_hits>  (1547) 
2

>  <submitter_name>  (1547) 
nan

>  <original SMILES>  (1547) 
nan

>  <∆G_unbound>  (1547) 
0.708369

>  <∆G_bound>  (1547) 
-4.396689

>  <regarded>  (1547) 
5CMS_0_M_α,6WOJ_0_D_α

>  <ref_pdb>  (1547) 
nan

>  <smiles>  (1547) 
OC1OC(CC2OC(O)C(O)C2O)C(O)C1O

>  <submitter_email>  (1547) 
nan

>  <disregarded>  (1547) 


>  <LE>  (1547) 
-0.300298

>  <submitter_institution>  (1547) 
nan

>  <ref_mols>  (1547) 
5CMS_0_M,6WOJ_0_D

>  <N_constrained_atoms>  (1547) 
17.0

>  <ref_url>  (1547) 
nan

>  <method>  (1547) 
nan

>  <comRMSD>  (1547) 
nan

>  <N_unconstrained_atoms>  (1547) 
0.0

>  <∆∆G>  (1547) 
-5.105058

>  <runtime>  (1547) 
26.686244

>  <generation_date>  (1547) 
nan

$$$$
3VFQ_0_A_γ-mArh-5cb5_A_0_A_γ
     RDKit          3D

 15 16  0  0  0  0  0  0  0  0999 V2000
   -3.9720   11.4920   -2.2370 O   0  0  0  0  0  0  0  0  0  0  0  0
   -4.2620   12.8700   -2.4760 C   0  0  1  0  0  0  0  0  0  0  0  0
   -3.6310   13.7820   -1.4320 C   0  0  0  0  0  0  0  0  0  0  0  0
   -3.6380   13.3830   -3.7820 C   0  0  2  0  0  0  0  0  0  0  0  0
   -2.2420   12.9780   -4.0670 O   0  0  0  0  0  0  0  0  0  0  0  0
   -3.4170   15.0500   -2.1000 O   0  0  0  0  0  0  0  0  0  0  0  0
   -3.7840   14.8700   -3.4910 C   0  0  1  0  0  0  0  0  0  0  0  0
   -2.9940   15.7510   -4.4530 C   0  0  0  0  0  0  0  0  0  0  0  0
   -1.0420   13.6290   -3.4910 C   0  0  2  0  0  0  0  0  0  0  0  0
   -1.2580   14.9470   -2.7880 C   0  0  0  0  0  0  0  0  0  0  0  0
    0.0330   14.0370   -4.5480 C   0  0  1  0  0  0  0  0  0  0  0  0
   -0.3200   13.7900   -5.8810 O   0  0  0  0  0  0  0  0  0  0  0  0
   -0.0540   15.7230   -2.9180 O   0  0  0  0  0  0  0  0  0  0  0  0
    0.4490   15.4890   -4.2310 C   0  0  2  0  0  0  0  0  0  0  0  0
   -0.0270   16.6240   -5.1450 C   0  0  0  0  0  0  0  0  0  0  0  0
  2  1  1  1
  2  3  1  0
  2  4  1  0
  4  5  1  1
  3  6  1  0
  4  7  1  0
  6  7  1  0
  7  8  1  6
  9  5  1  6
  9 10  1  0
  9 11  1  0
 11 12  1  6
 10 13  1  0
 11 14  1  0
 13 14  1  0
 14 15  1  6
M  END
>  <%Rank>  (1548) 
nan

>  <N_hits>  (1548) 
2

>  <submitter_name>  (1548) 
nan

>  <original SMILES>  (1548) 
nan

>  <∆G_unbound>  (1548) 
0.129431

>  <∆G_bound>  (1548) 
-1.937835

>  <regarded>  (1548) 
3VFQ_0_A_γ,mArh-5cb5_A_0_A_γ

>  <ref_pdb>  (1548) 
nan

>  <smiles>  (1548) 
CC1OCC(OC2C(O)COC2C)C1O

>  <submitter_email>  (1548) 
nan

>  <disregarded>  (1548) 


>  <LE>  (1548) 
-0.137818

>  <submitter_institution>  (1548) 
nan

>  <ref_mols>  (1548) 
3VFQ_0_A,mArh-5cb5_A_0_A

>  <N_constrained_atoms>  (1548) 
15.0

>  <ref_url>  (1548) 
nan

>  <method>  (1548) 
nan

>  <comRMSD>  (1548) 
nan

>  <N_unconstrained_atoms>  (1548) 
0.0

>  <∆∆G>  (1548) 
-2.067266

>  <runtime>  (1548) 
22.560476

>  <generation_date>  (1548) 
nan

$$$$
5CB3_0_A_δ-mArh-2fav_B_0_B_γ
     RDKit          3D

 19 21  0  0  0  0  0  0  0  0999 V2000
   -4.1060   15.6240    2.0400 N   0  0  0  0  0  0  0  0  0  0  0  0
   -2.9450   15.5260    1.1730 C   0  0  2  0  0  0  0  0  0  0  0  0
   -3.2380   14.7570   -0.1020 C   0  0  2  0  0  0  0  0  0  0  0  0
   -1.9250   14.7980    1.8640 N   0  0  0  0  0  0  0  0  0  0  0  0
   -1.9560   14.5340   -0.8980 C   0  0  2  0  0  0  0  0  0  0  0  0
   -4.0810   15.4450   -1.0770 N   0  0  0  0  0  0  0  0  0  0  0  0
   -0.7070   14.5070    1.1030 C   0  0  0  0  0  0  0  0  0  0  0  0
   -2.5330   13.9580   -2.0950 N   0  0  0  0  0  0  0  0  0  0  0  0
   -3.7640   14.7390   -2.3080 C   0  0  0  0  0  0  0  0  0  0  0  0
   -0.9640   13.8140   -0.1530 N   0  0  0  0  0  0  0  0  0  0  0  0
   -1.7360   14.0980   -3.3020 C   0  0  0  0  0  0  0  0  0  0  0  0
   -0.2280   14.1100   -3.0860 C   0  0  2  0  0  0  0  0  0  0  0  0
    0.2800   15.4630   -3.1980 O   0  0  0  0  0  0  0  0  0  0  0  0
    0.4530   13.3060   -4.2040 C   0  0  1  0  0  0  0  0  0  0  0  0
   -0.4900   12.6920   -5.0950 O   0  0  0  0  0  0  0  0  0  0  0  0
    0.4120   15.6030   -4.6080 C   0  0  2  0  0  0  0  0  0  0  0  0
    1.2320   14.3690   -4.9520 C   0  0  1  0  0  0  0  0  0  0  0  0
    0.9700   16.9610   -4.9830 C   0  0  0  0  0  0  0  0  0  0  0  0
    2.5440   14.3920   -4.4320 O   0  0  0  0  0  0  0  0  0  0  0  0
  2  1  1  1
  2  3  1  0
  2  4  1  0
  3  5  1  0
  3  6  1  6
  4  7  1  0
  5  8  1  0
  6  9  1  0
  8  9  1  0
  5 10  1  1
  7 10  1  0
  8 11  1  0
 12 11  1  6
 12 13  1  0
 12 14  1  0
 14 15  1  6
 13 16  1  0
 14 17  1  0
 16 17  1  0
 16 18  1  1
 17 19  1  1
M  END
>  <%Rank>  (1549) 
nan

>  <N_hits>  (1549) 
2

>  <submitter_name>  (1549) 
nan

>  <original SMILES>  (1549) 
nan

>  <∆G_unbound>  (1549) 
0.988283

>  <∆G_bound>  (1549) 
-2.760968

>  <regarded>  (1549) 
5CB3_0_A_δ,mArh-2fav_B_0_B_γ

>  <ref_pdb>  (1549) 
nan

>  <smiles>  (1549) 
CC1OC(CN2CNC3C(N)NCNC32)C(O)C1O

>  <submitter_email>  (1549) 
nan

>  <disregarded>  (1549) 


>  <LE>  (1549) 
-0.197329

>  <submitter_institution>  (1549) 
nan

>  <ref_mols>  (1549) 
5CB3_0_A,mArh-2fav_B_0_B

>  <N_constrained_atoms>  (1549) 
18.0

>  <ref_url>  (1549) 
nan

>  <method>  (1549) 
nan

>  <comRMSD>  (1549) 
nan

>  <N_unconstrained_atoms>  (1549) 
1.0

>  <∆∆G>  (1549) 
-3.749251

>  <runtime>  (1549) 
26.92087

>  <generation_date>  (1549) 
nan

$$$$
mArh-5cms_C_2_C_α-6FX7_0_A_α
     RDKit          3D

 11 11  0  0  0  0  0  0  0  0999 V2000
   -2.4730   21.2600   -8.1440 C   0  0  0  0  0  0  0  0  0  0  0  0
   -3.7740   21.7370   -8.7960 C   0  0  1  0  0  0  0  0  0  0  0  0
   -4.5840   22.7500   -8.0040 C   0  0  0  0  0  0  0  0  0  0  0  0
   -3.4060   22.5050  -10.0450 C   0  0  1  0  0  0  0  0  0  0  0  0
   -3.6230   21.8740  -11.2890 O   0  0  0  0  0  0  0  0  0  0  0  0
   -4.5760   22.5960   -6.6070 O   0  0  0  0  0  0  0  0  0  0  0  0
   -5.9510   22.6710   -8.4020 O   0  0  0  0  0  0  0  0  0  0  0  0
   -3.9940   24.0450   -8.5320 C   0  0  2  0  0  0  0  0  0  0  0  0
   -4.2140   23.7650  -10.0150 C   0  0  1  0  0  0  0  0  0  0  0  0
   -2.5900   24.1520   -8.2860 O   0  0  0  0  0  0  0  0  0  0  0  0
   -3.7070   24.7090  -10.9680 O   0  0  0  0  0  0  0  0  0  0  0  0
  2  1  1  1
  2  3  1  0
  2  4  1  0
  4  5  1  6
  3  6  1  0
  3  7  1  0
  3  8  1  0
  4  9  1  0
  8  9  1  0
  8 10  1  6
  9 11  1  6
M  END
>  <%Rank>  (1550) 
nan

>  <N_hits>  (1550) 
2

>  <submitter_name>  (1550) 
nan

>  <original SMILES>  (1550) 
nan

>  <∆G_unbound>  (1550) 
0.121664

>  <∆G_bound>  (1550) 
-0.585587

>  <regarded>  (1550) 
mArh-5cms_C_2_C_α,6FX7_0_A_α

>  <ref_pdb>  (1550) 
nan

>  <smiles>  (1550) 
CC1C(O)C(O)C(O)C1(O)O

>  <submitter_email>  (1550) 
nan

>  <disregarded>  (1550) 


>  <LE>  (1550) 
-0.064296

>  <submitter_institution>  (1550) 
nan

>  <ref_mols>  (1550) 
mArh-5cms_C_2_C,6FX7_0_A

>  <N_constrained_atoms>  (1550) 
11.0

>  <ref_url>  (1550) 
nan

>  <method>  (1550) 
nan

>  <comRMSD>  (1550) 
nan

>  <N_unconstrained_atoms>  (1550) 
0.0

>  <∆∆G>  (1550) 
-0.707251

>  <runtime>  (1550) 
28.295356

>  <generation_date>  (1550) 
nan

$$$$
5L9K_0_B_γ-6FX7_0_A_γ
     RDKit          3D

  8  8  0  0  0  0  0  0  0  0999 V2000
   -2.3960   12.8540   -4.7450 O   0  0  0  0  0  0  0  0  0  0  0  0
   -1.9780   14.1880   -4.5420 C   0  0  1  0  0  0  0  0  0  0  0  0
   -1.6960   14.6030   -3.0980 C   0  0  0  0  0  0  0  0  0  0  0  0
   -0.5870   14.3670   -5.0650 C   0  0  2  0  0  0  0  0  0  0  0  0
    0.3230   13.4460   -4.4780 O   0  0  0  0  0  0  0  0  0  0  0  0
   -0.6810   15.6390   -3.2100 O   0  0  0  0  0  0  0  0  0  0  0  0
   -0.4890   15.8080   -4.6220 C   0  0  1  0  0  0  0  0  0  0  0  0
    0.7560   16.5950   -4.9700 C   0  0  0  0  0  0  0  0  0  0  0  0
  2  1  1  1
  2  3  1  0
  2  4  1  0
  4  5  1  1
  3  6  1  0
  4  7  1  0
  6  7  1  0
  7  8  1  1
M  END
>  <%Rank>  (1551) 
nan

>  <N_hits>  (1551) 
2

>  <submitter_name>  (1551) 
nan

>  <original SMILES>  (1551) 
nan

>  <∆G_unbound>  (1551) 
0.021216

>  <∆G_bound>  (1551) 
-2.173319

>  <regarded>  (1551) 
5L9K_0_B_γ,6FX7_0_A_γ

>  <ref_pdb>  (1551) 
nan

>  <smiles>  (1551) 
CC1OCC(O)C1O

>  <submitter_email>  (1551) 
nan

>  <disregarded>  (1551) 


>  <LE>  (1551) 
-0.274317

>  <submitter_institution>  (1551) 
nan

>  <ref_mols>  (1551) 
5L9K_0_B,6FX7_0_A

>  <N_constrained_atoms>  (1551) 
8.0

>  <ref_url>  (1551) 
nan

>  <method>  (1551) 
nan

>  <comRMSD>  (1551) 
nan

>  <N_unconstrained_atoms>  (1551) 
0.0

>  <∆∆G>  (1551) 
-2.194535

>  <runtime>  (1551) 
18.946233

>  <generation_date>  (1551) 
nan

$$$$
5CMS_0_L_δ-mArh-5cms_F_6_F_γ
     RDKit          3D

 17 19  0  0  0  0  0  0  0  0999 V2000
   -3.6290   15.3690    1.4210 N   0  0  0  0  0  0  0  0  0  0  0  0
   -2.5070   14.7450    0.7380 C   0  0  1  0  0  0  0  0  0  0  0  0
   -2.3100   15.2050   -0.7150 C   0  0  1  0  0  0  0  0  0  0  0  0
   -1.3580   15.1460    1.4990 N   0  0  0  0  0  0  0  0  0  0  0  0
   -1.1200   14.4340   -1.2810 C   0  0  1  0  0  0  0  0  0  0  0  0
   -3.3700   15.0150   -1.7040 N   0  0  0  0  0  0  0  0  0  0  0  0
   -0.0930   14.6440    0.9600 C   0  0  0  0  0  0  0  0  0  0  0  0
   -1.2200   14.7770   -2.8170 C   0  0  1  0  0  0  0  0  0  0  0  0
   -2.6240   15.3990   -2.9170 C   0  0  0  0  0  0  0  0  0  0  0  0
    0.0440   14.8190   -0.4880 N   0  0  0  0  0  0  0  0  0  0  0  0
   -0.2120   15.7880   -3.1600 O   0  0  0  0  0  0  0  0  0  0  0  0
   -1.0710   13.7220   -3.9550 C   0  0  2  0  0  0  0  0  0  0  0  0
   -0.7110   12.3930   -3.6430 O   0  0  0  0  0  0  0  0  0  0  0  0
   -0.2240   15.8050   -4.5910 C   0  0  2  0  0  0  0  0  0  0  0  0
   -0.0930   14.3330   -4.9590 C   0  0  1  0  0  0  0  0  0  0  0  0
    0.8120   16.7470   -5.1560 C   0  0  0  0  0  0  0  0  0  0  0  0
    1.2110   13.7690   -4.8320 O   0  0  0  0  0  0  0  0  0  0  0  0
  2  1  1  1
  2  3  1  0
  2  4  1  0
  3  5  1  0
  3  6  1  6
  4  7  1  0
  5  8  1  0
  6  9  1  0
  8  9  1  1
  5 10  1  1
  7 10  1  0
  8 11  1  0
  8 12  1  0
 12 13  1  1
 11 14  1  0
 12 15  1  0
 14 15  1  0
 14 16  1  6
 15 17  1  1
M  END
>  <%Rank>  (1552) 
nan

>  <N_hits>  (1552) 
2

>  <submitter_name>  (1552) 
nan

>  <original SMILES>  (1552) 
nan

>  <∆G_unbound>  (1552) 
0.690665

>  <∆G_bound>  (1552) 
-3.455317

>  <regarded>  (1552) 
5CMS_0_L_δ,mArh-5cms_F_6_F_γ

>  <ref_pdb>  (1552) 
nan

>  <smiles>  (1552) 
CC1OC2(CNC3C(N)NCNC32)C(O)C1O

>  <submitter_email>  (1552) 
nan

>  <disregarded>  (1552) 


>  <LE>  (1552) 
-0.243881

>  <submitter_institution>  (1552) 
nan

>  <ref_mols>  (1552) 
5CMS_0_L,mArh-5cms_F_6_F

>  <N_constrained_atoms>  (1552) 
17.0

>  <ref_url>  (1552) 
nan

>  <method>  (1552) 
nan

>  <comRMSD>  (1552) 
nan

>  <N_unconstrained_atoms>  (1552) 
0.0

>  <∆∆G>  (1552) 
-4.145982

>  <runtime>  (1552) 
24.9165

>  <generation_date>  (1552) 
nan

$$$$
5CMS_0_C_δ-5L9K_0_A_γ
     RDKit          3D

 17 19  0  0  0  0  0  0  0  0999 V2000
   -3.6740   15.6130    1.8700 N   0  0  0  0  0  0  0  0  0  0  0  0
   -2.7630   14.8590    1.0330 C   0  0  1  0  0  0  0  0  0  0  0  0
   -2.6780   15.3580   -0.4060 C   0  0  1  0  0  0  0  0  0  0  0  0
   -1.4550   14.8790    1.6660 N   0  0  0  0  0  0  0  0  0  0  0  0
   -1.6190   14.4850   -1.0680 C   0  0  1  0  0  0  0  0  0  0  0  0
   -3.8750   15.2060   -1.2430 N   0  0  0  0  0  0  0  0  0  0  0  0
   -0.3770   15.4080    0.8180 C   0  0  0  0  0  0  0  0  0  0  0  0
   -1.8530   14.7670   -2.5810 C   0  0  1  0  0  0  0  0  0  0  0  0
   -3.3320   15.1970   -2.6150 C   0  0  0  0  0  0  0  0  0  0  0  0
   -0.3190   14.7540   -0.4690 N   0  0  0  0  0  0  0  0  0  0  0  0
   -1.0000   15.8830   -3.0260 O   0  0  0  0  0  0  0  0  0  0  0  0
   -1.5730   13.6460   -3.6110 C   0  0  1  0  0  0  0  0  0  0  0  0
   -2.6750   12.9180   -4.1130 O   0  0  0  0  0  0  0  0  0  0  0  0
   -0.9360   15.7810   -4.4580 C   0  0  2  0  0  0  0  0  0  0  0  0
   -0.7810   14.2940   -4.7470 C   0  0  1  0  0  0  0  0  0  0  0  0
    0.1590   16.6660   -5.0420 C   0  0  0  0  0  0  0  0  0  0  0  0
    0.5560   13.8050   -4.7510 O   0  0  0  0  0  0  0  0  0  0  0  0
  2  1  1  1
  2  3  1  0
  2  4  1  0
  3  5  1  0
  3  6  1  6
  4  7  1  0
  5  8  1  0
  6  9  1  0
  8  9  1  1
  5 10  1  1
  7 10  1  0
  8 11  1  0
  8 12  1  0
 12 13  1  6
 11 14  1  0
 12 15  1  0
 14 15  1  0
 14 16  1  1
 15 17  1  1
M  END
>  <%Rank>  (1553) 
nan

>  <N_hits>  (1553) 
2

>  <submitter_name>  (1553) 
nan

>  <original SMILES>  (1553) 
nan

>  <∆G_unbound>  (1553) 
0.690665

>  <∆G_bound>  (1553) 
-2.801588

>  <regarded>  (1553) 
5CMS_0_C_δ,5L9K_0_A_γ

>  <ref_pdb>  (1553) 
nan

>  <smiles>  (1553) 
CC1OC2(CNC3C(N)NCNC32)C(O)C1O

>  <submitter_email>  (1553) 
nan

>  <disregarded>  (1553) 


>  <LE>  (1553) 
-0.205427

>  <submitter_institution>  (1553) 
nan

>  <ref_mols>  (1553) 
5CMS_0_C,5L9K_0_A

>  <N_constrained_atoms>  (1553) 
17.0

>  <ref_url>  (1553) 
nan

>  <method>  (1553) 
nan

>  <comRMSD>  (1553) 
nan

>  <N_unconstrained_atoms>  (1553) 
0.0

>  <∆∆G>  (1553) 
-3.492252

>  <runtime>  (1553) 
24.566615

>  <generation_date>  (1553) 
nan

$$$$
mArh-5cms_G_3_G_β-4IQY_0_B_γ
     RDKit          3D

  8  8  0  0  0  0  0  0  0  0999 V2000
   -0.9190   12.4410   -4.0610 O   0  0  0  0  0  0  0  0  0  0  0  0
   -1.1110   13.8460   -4.0820 C   0  0  1  0  0  0  0  0  0  0  0  0
   -0.6650   14.5200   -2.7870 C   0  0  0  0  0  0  0  0  0  0  0  0
   -0.1410   14.4360   -5.0680 C   0  0  2  0  0  0  0  0  0  0  0  0
    1.1030   13.7440   -5.0360 O   0  0  0  0  0  0  0  0  0  0  0  0
    0.0340   15.7310   -3.1640 O   0  0  0  0  0  0  0  0  0  0  0  0
   -0.1660   15.8780   -4.5790 C   0  0  1  0  0  0  0  0  0  0  0  0
    0.8150   16.8620   -5.1810 C   0  0  0  0  0  0  0  0  0  0  0  0
  2  1  1  1
  2  3  1  0
  2  4  1  0
  4  5  1  1
  3  6  1  0
  4  7  1  0
  6  7  1  0
  7  8  1  6
M  END
>  <%Rank>  (1554) 
nan

>  <N_hits>  (1554) 
2

>  <submitter_name>  (1554) 
nan

>  <original SMILES>  (1554) 
nan

>  <∆G_unbound>  (1554) 
0.021216

>  <∆G_bound>  (1554) 
-2.625515

>  <regarded>  (1554) 
mArh-5cms_G_3_G_β,4IQY_0_B_γ

>  <ref_pdb>  (1554) 
nan

>  <smiles>  (1554) 
CC1OCC(O)C1O

>  <submitter_email>  (1554) 
nan

>  <disregarded>  (1554) 


>  <LE>  (1554) 
-0.330841

>  <submitter_institution>  (1554) 
nan

>  <ref_mols>  (1554) 
mArh-5cms_G_3_G,4IQY_0_B

>  <N_constrained_atoms>  (1554) 
8.0

>  <ref_url>  (1554) 
nan

>  <method>  (1554) 
nan

>  <comRMSD>  (1554) 
nan

>  <N_unconstrained_atoms>  (1554) 
0.0

>  <∆∆G>  (1554) 
-2.646732

>  <runtime>  (1554) 
19.11931

>  <generation_date>  (1554) 
nan

$$$$
5CMS_0_R_δ-mArh-5cms_D_3_D_β
     RDKit          3D

 17 19  0  0  0  0  0  0  0  0999 V2000
   -3.6570   15.4390    1.4330 N   0  0  0  0  0  0  0  0  0  0  0  0
   -2.5310   14.8230    0.7450 C   0  0  1  0  0  0  0  0  0  0  0  0
   -2.3590   15.2320   -0.7340 C   0  0  1  0  0  0  0  0  0  0  0  0
   -1.3760   15.2590    1.4930 N   0  0  0  0  0  0  0  0  0  0  0  0
   -1.0990   14.5270   -1.2180 C   0  0  1  0  0  0  0  0  0  0  0  0
   -3.3750   14.8620   -1.7230 N   0  0  0  0  0  0  0  0  0  0  0  0
   -0.1130   14.7430    0.9770 C   0  0  0  0  0  0  0  0  0  0  0  0
   -1.1530   14.7530   -2.7620 C   0  0  1  0  0  0  0  0  0  0  0  0
   -2.6430   15.0870   -2.9940 C   0  0  0  0  0  0  0  0  0  0  0  0
    0.0310   15.0040   -0.4420 N   0  0  0  0  0  0  0  0  0  0  0  0
   -0.3020   15.8910   -3.1280 O   0  0  0  0  0  0  0  0  0  0  0  0
   -0.6220   13.6540   -3.7170 C   0  0  1  0  0  0  0  0  0  0  0  0
   -1.4870   12.6050   -4.0990 O   0  0  0  0  0  0  0  0  0  0  0  0
   -0.2580   15.8650   -4.5640 C   0  0  2  0  0  0  0  0  0  0  0  0
   -0.0920   14.3950   -4.9470 C   0  0  1  0  0  0  0  0  0  0  0  0
    0.8080   16.7950   -5.1120 C   0  0  0  0  0  0  0  0  0  0  0  0
    1.2410   13.9860   -5.2330 O   0  0  0  0  0  0  0  0  0  0  0  0
  2  1  1  1
  2  3  1  0
  2  4  1  0
  3  5  1  0
  3  6  1  6
  4  7  1  0
  5  8  1  0
  6  9  1  0
  8  9  1  6
  5 10  1  1
  7 10  1  0
  8 11  1  0
  8 12  1  0
 12 13  1  6
 11 14  1  0
 12 15  1  0
 14 15  1  0
 14 16  1  1
 15 17  1  1
M  END
>  <%Rank>  (1555) 
nan

>  <N_hits>  (1555) 
2

>  <submitter_name>  (1555) 
nan

>  <original SMILES>  (1555) 
nan

>  <∆G_unbound>  (1555) 
0.690665

>  <∆G_bound>  (1555) 
-3.258639

>  <regarded>  (1555) 
5CMS_0_R_δ,mArh-5cms_D_3_D_β

>  <ref_pdb>  (1555) 
nan

>  <smiles>  (1555) 
CC1OC2(CNC3C(N)NCNC32)C(O)C1O

>  <submitter_email>  (1555) 
nan

>  <disregarded>  (1555) 


>  <LE>  (1555) 
-0.232312

>  <submitter_institution>  (1555) 
nan

>  <ref_mols>  (1555) 
5CMS_0_R,mArh-5cms_D_3_D

>  <N_constrained_atoms>  (1555) 
17.0

>  <ref_url>  (1555) 
nan

>  <method>  (1555) 
nan

>  <comRMSD>  (1555) 
nan

>  <N_unconstrained_atoms>  (1555) 
0.0

>  <∆∆G>  (1555) 
-3.949304

>  <runtime>  (1555) 
23.8346

>  <generation_date>  (1555) 
nan

$$$$
6WOJ_0_B_γ-5CMS_0_O_γ
     RDKit          3D

  8  8  0  0  0  0  0  0  0  0999 V2000
   -0.5670   12.1680   -4.3920 O   0  0  0  0  0  0  0  0  0  0  0  0
   -0.7240   13.5840   -4.3540 C   0  0  1  0  0  0  0  0  0  0  0  0
   -0.4810   14.1680   -2.9590 C   0  0  0  0  0  0  0  0  0  0  0  0
    0.3720   14.2780   -5.1240 C   0  0  2  0  0  0  0  0  0  0  0  0
    1.6350   13.6800   -4.8660 O   0  0  0  0  0  0  0  0  0  0  0  0
    0.1370   15.4640   -3.1540 O   0  0  0  0  0  0  0  0  0  0  0  0
    0.1050   15.6720   -4.5710 C   0  0  1  0  0  0  0  0  0  0  0  0
    0.9770   16.8350   -4.9990 C   0  0  0  0  0  0  0  0  0  0  0  0
  2  1  1  1
  2  3  1  0
  2  4  1  0
  4  5  1  1
  3  6  1  0
  4  7  1  0
  6  7  1  0
  7  8  1  1
M  END
>  <%Rank>  (1556) 
nan

>  <N_hits>  (1556) 
2

>  <submitter_name>  (1556) 
nan

>  <original SMILES>  (1556) 
nan

>  <∆G_unbound>  (1556) 
0.021216

>  <∆G_bound>  (1556) 
-2.977117

>  <regarded>  (1556) 
6WOJ_0_B_γ,5CMS_0_O_γ

>  <ref_pdb>  (1556) 
nan

>  <smiles>  (1556) 
CC1OCC(O)C1O

>  <submitter_email>  (1556) 
nan

>  <disregarded>  (1556) 


>  <LE>  (1556) 
-0.374792

>  <submitter_institution>  (1556) 
nan

>  <ref_mols>  (1556) 
6WOJ_0_B,5CMS_0_O

>  <N_constrained_atoms>  (1556) 
8.0

>  <ref_url>  (1556) 
nan

>  <method>  (1556) 
nan

>  <comRMSD>  (1556) 
nan

>  <N_unconstrained_atoms>  (1556) 
0.0

>  <∆∆G>  (1556) 
-2.998333

>  <runtime>  (1556) 
18.501244

>  <generation_date>  (1556) 
nan

$$$$
5CMS_0_A_δ-6WOJ_0_A_δ
     RDKit          3D

 10 11  0  0  0  0  0  0  0  0999 V2000
   -4.2880   15.5280    1.6630 N   0  0  0  0  0  0  0  0  0  0  0  0
   -3.0330   15.5090    0.9330 C   0  0  2  0  0  0  0  0  0  0  0  0
   -3.1130   14.8080   -0.4130 C   0  0  2  0  0  0  0  0  0  0  0  0
   -2.0110   14.8800    1.7420 N   0  0  0  0  0  0  0  0  0  0  0  0
   -1.7370   15.0530   -0.9940 C   0  0  2  0  0  0  0  0  0  0  0  0
   -3.9770   15.3000   -1.4840 N   0  0  0  0  0  0  0  0  0  0  0  0
   -0.6880   14.9510    1.1230 C   0  0  0  0  0  0  0  0  0  0  0  0
   -1.8950   14.4880   -2.3030 N   0  0  0  0  0  0  0  0  0  0  0  0
   -3.2380   14.9160   -2.6940 C   0  0  0  0  0  0  0  0  0  0  0  0
   -0.6970   14.4240   -0.2270 N   0  0  0  0  0  0  0  0  0  0  0  0
  2  1  1  1
  2  3  1  0
  2  4  1  0
  3  5  1  0
  3  6  1  6
  4  7  1  0
  5  8  1  6
  6  9  1  0
  8  9  1  0
  5 10  1  0
  7 10  1  0
M  END
>  <%Rank>  (1557) 
nan

>  <N_hits>  (1557) 
2

>  <submitter_name>  (1557) 
nan

>  <original SMILES>  (1557) 
nan

>  <∆G_unbound>  (1557) 
0.213408

>  <∆G_bound>  (1557) 
-1.627361

>  <regarded>  (1557) 
5CMS_0_A_δ,6WOJ_0_A_δ

>  <ref_pdb>  (1557) 
nan

>  <smiles>  (1557) 
NC1NCNC2NCNC12

>  <submitter_email>  (1557) 
nan

>  <disregarded>  (1557) 


>  <LE>  (1557) 
-0.184077

>  <submitter_institution>  (1557) 
nan

>  <ref_mols>  (1557) 
5CMS_0_A,6WOJ_0_A

>  <N_constrained_atoms>  (1557) 
10.0

>  <ref_url>  (1557) 
nan

>  <method>  (1557) 
nan

>  <comRMSD>  (1557) 
nan

>  <N_unconstrained_atoms>  (1557) 
0.0

>  <∆∆G>  (1557) 
-1.840769

>  <runtime>  (1557) 
21.497449

>  <generation_date>  (1557) 
nan

$$$$
5CMS_0_N_δ-5CMS_0_F_δ
     RDKit          3D

 10 11  0  0  0  0  0  0  0  0999 V2000
   -3.8030   15.0040    1.1530 N   0  0  0  0  0  0  0  0  0  0  0  0
   -2.5480   15.3450    0.5280 C   0  0  2  0  0  0  0  0  0  0  0  0
   -2.3920   14.7630   -0.8790 C   0  0  2  0  0  0  0  0  0  0  0  0
   -1.4990   14.8700    1.4060 N   0  0  0  0  0  0  0  0  0  0  0  0
   -1.0140   15.2210   -1.3130 C   0  0  2  0  0  0  0  0  0  0  0  0
   -3.2200   15.2260   -1.9950 N   0  0  0  0  0  0  0  0  0  0  0  0
   -0.1830   15.1830    0.8780 C   0  0  0  0  0  0  0  0  0  0  0  0
   -0.9910   14.7420   -2.6690 N   0  0  0  0  0  0  0  0  0  0  0  0
   -2.3310   15.0860   -3.1540 C   0  0  0  0  0  0  0  0  0  0  0  0
    0.0080   14.6720   -0.4700 N   0  0  0  0  0  0  0  0  0  0  0  0
  2  1  1  1
  2  3  1  0
  2  4  1  0
  3  5  1  0
  3  6  1  6
  4  7  1  0
  5  8  1  6
  6  9  1  0
  8  9  1  0
  5 10  1  0
  7 10  1  0
M  END
>  <%Rank>  (1558) 
nan

>  <N_hits>  (1558) 
2

>  <submitter_name>  (1558) 
nan

>  <original SMILES>  (1558) 
nan

>  <∆G_unbound>  (1558) 
0.213408

>  <∆G_bound>  (1558) 
-1.283876

>  <regarded>  (1558) 
5CMS_0_N_δ,5CMS_0_F_δ

>  <ref_pdb>  (1558) 
nan

>  <smiles>  (1558) 
NC1NCNC2NCNC12

>  <submitter_email>  (1558) 
nan

>  <disregarded>  (1558) 


>  <LE>  (1558) 
-0.149728

>  <submitter_institution>  (1558) 
nan

>  <ref_mols>  (1558) 
5CMS_0_N,5CMS_0_F

>  <N_constrained_atoms>  (1558) 
10.0

>  <ref_url>  (1558) 
nan

>  <method>  (1558) 
nan

>  <comRMSD>  (1558) 
nan

>  <N_unconstrained_atoms>  (1558) 
0.0

>  <∆∆G>  (1558) 
-1.497284

>  <runtime>  (1558) 
20.539713

>  <generation_date>  (1558) 
nan

$$$$
3Q6Z_0_A_δ-5CB5_0_E_γ
     RDKit          3D

 17 19  0  0  0  0  0  0  0  0999 V2000
   -6.4710   14.8810   -0.7610 N   0  0  0  0  0  0  0  0  0  0  0  0
   -5.1040   14.3900   -0.7640 C   0  0  1  0  0  0  0  0  0  0  0  0
   -4.2520   14.8050   -1.9900 C   0  0  1  0  0  0  0  0  0  0  0  0
   -4.5400   14.9220    0.4620 N   0  0  0  0  0  0  0  0  0  0  0  0
   -2.8610   14.1990   -1.7900 C   0  0  1  0  0  0  0  0  0  0  0  0
   -4.6320   14.3410   -3.3330 N   0  0  0  0  0  0  0  0  0  0  0  0
   -3.1590   14.4740    0.6580 C   0  0  0  0  0  0  0  0  0  0  0  0
   -2.1770   14.4330   -3.2050 C   0  0  1  0  0  0  0  0  0  0  0  0
   -3.4070   14.6440   -4.1170 C   0  0  0  0  0  0  0  0  0  0  0  0
   -2.3220   14.7210   -0.5240 N   0  0  0  0  0  0  0  0  0  0  0  0
   -1.2990   15.6070   -3.2450 O   0  0  0  0  0  0  0  0  0  0  0  0
   -1.1510   13.4360   -3.7960 C   0  0  1  0  0  0  0  0  0  0  0  0
   -1.6030   12.1920   -4.2750 O   0  0  0  0  0  0  0  0  0  0  0  0
   -0.7490   15.6630   -4.5750 C   0  0  2  0  0  0  0  0  0  0  0  0
   -0.4320   14.2120   -4.9130 C   0  0  1  0  0  0  0  0  0  0  0  0
    0.4250   16.6310   -4.6890 C   0  0  0  0  0  0  0  0  0  0  0  0
    0.9550   13.8870   -4.9360 O   0  0  0  0  0  0  0  0  0  0  0  0
  2  1  1  6
  2  3  1  0
  2  4  1  0
  3  5  1  0
  3  6  1  6
  4  7  1  0
  5  8  1  0
  6  9  1  0
  8  9  1  6
  5 10  1  1
  7 10  1  0
  8 11  1  0
  8 12  1  0
 12 13  1  6
 11 14  1  0
 12 15  1  0
 14 15  1  0
 14 16  1  1
 15 17  1  1
M  END
>  <%Rank>  (1559) 
nan

>  <N_hits>  (1559) 
2

>  <submitter_name>  (1559) 
nan

>  <original SMILES>  (1559) 
nan

>  <∆G_unbound>  (1559) 
0.690665

>  <∆G_bound>  (1559) 
-2.996396

>  <regarded>  (1559) 
3Q6Z_0_A_δ,5CB5_0_E_γ

>  <ref_pdb>  (1559) 
nan

>  <smiles>  (1559) 
CC1OC2(CNC3C(N)NCNC32)C(O)C1O

>  <submitter_email>  (1559) 
nan

>  <disregarded>  (1559) 


>  <LE>  (1559) 
-0.216886

>  <submitter_institution>  (1559) 
nan

>  <ref_mols>  (1559) 
3Q6Z_0_A,5CB5_0_E

>  <N_constrained_atoms>  (1559) 
17.0

>  <ref_url>  (1559) 
nan

>  <method>  (1559) 
nan

>  <comRMSD>  (1559) 
nan

>  <N_unconstrained_atoms>  (1559) 
0.0

>  <∆∆G>  (1559) 
-3.687061

>  <runtime>  (1559) 
24.25509

>  <generation_date>  (1559) 
nan

$$$$
2BFQ_1_A_γ-5CMS_0_R_δ
     RDKit          3D

 17 19  0  0  0  0  0  0  0  0999 V2000
   -1.3660   12.8890   -3.7840 O   0  0  0  0  0  0  0  0  0  0  0  0
   -0.5150   13.9910   -3.4830 C   0  0  2  0  0  0  0  0  0  0  0  0
   -1.1530   15.1440   -2.7030 C   0  0  2  0  0  0  0  0  0  0  0  0
    0.0110   14.6030   -4.7760 C   0  0  2  0  0  0  0  0  0  0  0  0
    1.3760   14.2640   -4.9660 O   0  0  0  0  0  0  0  0  0  0  0  0
   -0.6110   16.3610   -3.2700 O   0  0  0  0  0  0  0  0  0  0  0  0
   -0.3130   16.1020   -4.6540 C   0  0  1  0  0  0  0  0  0  0  0  0
   -0.9500   15.2580   -1.1650 C   0  0  1  0  0  0  0  0  0  0  0  0
   -2.6990   15.0840   -2.8370 C   0  0  0  0  0  0  0  0  0  0  0  0
    0.7490   17.0860   -5.1150 C   0  0  0  0  0  0  0  0  0  0  0  0
   -2.3900   15.5170   -0.6880 C   0  0  1  0  0  0  0  0  0  0  0  0
   -3.2270   14.6680   -1.5230 N   0  0  0  0  0  0  0  0  0  0  0  0
   -0.2450   14.2030   -0.4230 N   0  0  0  0  0  0  0  0  0  0  0  0
   -0.2780   14.4230    1.0140 C   0  0  0  0  0  0  0  0  0  0  0  0
   -2.4700   15.4440    0.8520 C   0  0  1  0  0  0  0  0  0  0  0  0
   -3.8230   15.2700    1.3430 N   0  0  0  0  0  0  0  0  0  0  0  0
   -1.6370   14.4610    1.4930 N   0  0  0  0  0  0  0  0  0  0  0  0
  2  1  1  6
  2  3  1  0
  2  4  1  0
  4  5  1  1
  3  6  1  0
  4  7  1  0
  6  7  1  0
  3  8  1  0
  3  9  1  1
  7 10  1  1
  8 11  1  0
  9 12  1  0
 11 12  1  6
  8 13  1  1
 13 14  1  0
 11 15  1  0
 15 16  1  6
 14 17  1  0
 15 17  1  0
M  END
>  <%Rank>  (1560) 
nan

>  <N_hits>  (1560) 
2

>  <submitter_name>  (1560) 
nan

>  <original SMILES>  (1560) 
nan

>  <∆G_unbound>  (1560) 
0.631637

>  <∆G_bound>  (1560) 
-3.996011

>  <regarded>  (1560) 
2BFQ_1_A_γ,5CMS_0_R_δ

>  <ref_pdb>  (1560) 
nan

>  <smiles>  (1560) 
CC1OC2(CNC3C(N)NCNC32)C(O)C1O

>  <submitter_email>  (1560) 
nan

>  <disregarded>  (1560) 


>  <LE>  (1560) 
-0.272215

>  <submitter_institution>  (1560) 
nan

>  <ref_mols>  (1560) 
2BFQ_1_A,5CMS_0_R

>  <N_constrained_atoms>  (1560) 
17.0

>  <ref_url>  (1560) 
nan

>  <method>  (1560) 
nan

>  <comRMSD>  (1560) 
nan

>  <N_unconstrained_atoms>  (1560) 
0.0

>  <∆∆G>  (1560) 
-4.627648

>  <runtime>  (1560) 
24.370144

>  <generation_date>  (1560) 
nan

$$$$
mArh-5l9k_A_0_A_γ-mArh-6fx_7_0A_γ
     RDKit          3D

  8  8  0  0  0  0  0  0  0  0999 V2000
   -2.3670   12.8340   -4.7550 O   0  0  0  0  0  0  0  0  0  0  0  0
   -1.9610   14.1760   -4.5650 C   0  0  1  0  0  0  0  0  0  0  0  0
   -1.7100   14.6110   -3.1230 C   0  0  0  0  0  0  0  0  0  0  0  0
   -0.5620   14.3610   -5.0660 C   0  0  2  0  0  0  0  0  0  0  0  0
    0.3360   13.4570   -4.4320 O   0  0  0  0  0  0  0  0  0  0  0  0
   -0.7050   15.6590   -3.2330 O   0  0  0  0  0  0  0  0  0  0  0  0
   -0.4830   15.8100   -4.6430 C   0  0  1  0  0  0  0  0  0  0  0  0
    0.7670   16.6080   -4.9750 C   0  0  0  0  0  0  0  0  0  0  0  0
  2  1  1  1
  2  3  1  0
  2  4  1  0
  4  5  1  1
  3  6  1  0
  4  7  1  0
  6  7  1  0
  7  8  1  1
M  END
>  <%Rank>  (1561) 
nan

>  <N_hits>  (1561) 
2

>  <submitter_name>  (1561) 
nan

>  <original SMILES>  (1561) 
nan

>  <∆G_unbound>  (1561) 
0.021216

>  <∆G_bound>  (1561) 
-2.209826

>  <regarded>  (1561) 
mArh-5l9k_A_0_A_γ,mArh-6fx_7_0A_γ

>  <ref_pdb>  (1561) 
nan

>  <smiles>  (1561) 
CC1OCC(O)C1O

>  <submitter_email>  (1561) 
nan

>  <disregarded>  (1561) 


>  <LE>  (1561) 
-0.27888

>  <submitter_institution>  (1561) 
nan

>  <ref_mols>  (1561) 
mArh-5l9k_A_0_A,mArh-6fx_7_0A

>  <N_constrained_atoms>  (1561) 
8.0

>  <ref_url>  (1561) 
nan

>  <method>  (1561) 
nan

>  <comRMSD>  (1561) 
nan

>  <N_unconstrained_atoms>  (1561) 
0.0

>  <∆∆G>  (1561) 
-2.231042

>  <runtime>  (1561) 
19.089586

>  <generation_date>  (1561) 
nan

$$$$
6WOJ_0_B_α-3VFQ_0_A_α
     RDKit          3D

 17 18  0  0  0  0  0  0  0  0999 V2000
   -2.1720   21.3560   -8.5150 C   0  0  0  0  0  0  0  0  0  0  0  0
   -2.4260   22.3170   -7.4000 C   0  0  2  0  0  0  0  0  0  0  0  0
   -2.8870   21.4870   -6.3090 O   0  0  0  0  0  0  0  0  0  0  0  0
   -3.4340   23.5190   -7.5670 C   0  0  1  0  0  0  0  0  0  0  0  0
   -4.3350   23.4730   -8.7160 O   0  0  0  0  0  0  0  0  0  0  0  0
   -4.2330   21.8690   -6.1500 C   0  0  2  0  0  0  0  0  0  0  0  0
   -4.1540   23.4100   -6.2310 C   0  0  2  0  0  0  0  0  0  0  0  0
   -4.7750   21.3160   -4.9550 O   0  0  0  0  0  0  0  0  0  0  0  0
   -5.4370   24.0760   -6.2990 O   0  0  0  0  0  0  0  0  0  0  0  0
   -5.7490   23.4290   -8.4070 C   0  0  2  0  0  0  0  0  0  0  0  0
   -6.0080   22.7200   -7.2060 O   0  0  0  0  0  0  0  0  0  0  0  0
   -6.5680   22.7030   -9.5050 C   0  0  1  0  0  0  0  0  0  0  0  0
   -5.8280   22.5150  -10.7190 O   0  0  0  0  0  0  0  0  0  0  0  0
   -6.0420   21.3500   -7.6130 C   0  0  1  0  0  0  0  0  0  0  0  0
   -6.8870   21.3450   -8.8860 C   0  0  1  0  0  0  0  0  0  0  0  0
   -4.6320   20.8350   -7.7050 C   0  0  0  0  0  0  0  0  0  0  0  0
   -8.2660   21.1070   -8.7240 O   0  0  0  0  0  0  0  0  0  0  0  0
  2  1  1  6
  2  3  1  0
  2  4  1  0
  4  5  1  6
  3  6  1  0
  4  7  1  0
  6  7  1  0
  6  8  1  1
  7  9  1  6
 10  5  1  6
 10 11  1  0
 10 12  1  0
 12 13  1  6
 11 14  1  0
 12 15  1  0
 14 15  1  0
 14 16  1  6
 15 17  1  1
M  END
>  <%Rank>  (1562) 
nan

>  <N_hits>  (1562) 
2

>  <submitter_name>  (1562) 
nan

>  <original SMILES>  (1562) 
nan

>  <∆G_unbound>  (1562) 
0.433533

>  <∆G_bound>  (1562) 
-1.28296

>  <regarded>  (1562) 
6WOJ_0_B_α,3VFQ_0_A_α

>  <ref_pdb>  (1562) 
nan

>  <smiles>  (1562) 
CC1OC(OC2C(C)OC(O)C2O)C(O)C1O

>  <submitter_email>  (1562) 
nan

>  <disregarded>  (1562) 


>  <LE>  (1562) 
-0.10097

>  <submitter_institution>  (1562) 
nan

>  <ref_mols>  (1562) 
6WOJ_0_B,3VFQ_0_A

>  <N_constrained_atoms>  (1562) 
17.0

>  <ref_url>  (1562) 
nan

>  <method>  (1562) 
nan

>  <comRMSD>  (1562) 
nan

>  <N_unconstrained_atoms>  (1562) 
0.0

>  <∆∆G>  (1562) 
-1.716493

>  <runtime>  (1562) 
47.668357

>  <generation_date>  (1562) 
nan

$$$$
5CB5_0_M_δ-mArh-5l9k_B_0_B_γ
     RDKit          3D

 17 19  0  0  0  0  0  0  0  0999 V2000
   -3.8380   15.5520    1.7960 N   0  0  0  0  0  0  0  0  0  0  0  0
   -2.7860   14.9220    1.0150 C   0  0  1  0  0  0  0  0  0  0  0  0
   -2.7620   15.4030   -0.4330 C   0  0  1  0  0  0  0  0  0  0  0  0
   -1.5260   15.2630    1.6380 N   0  0  0  0  0  0  0  0  0  0  0  0
   -1.6170   14.6390   -1.0760 C   0  0  1  0  0  0  0  0  0  0  0  0
   -3.9320   15.1500   -1.2860 N   0  0  0  0  0  0  0  0  0  0  0  0
   -0.3450   14.7220    0.9730 C   0  0  0  0  0  0  0  0  0  0  0  0
   -1.8660   14.8670   -2.5950 C   0  0  1  0  0  0  0  0  0  0  0  0
   -3.3590   15.2490   -2.6440 C   0  0  0  0  0  0  0  0  0  0  0  0
   -0.3680   15.0460   -0.4430 N   0  0  0  0  0  0  0  0  0  0  0  0
   -1.0350   15.9820   -3.0740 O   0  0  0  0  0  0  0  0  0  0  0  0
   -1.5640   13.7150   -3.5780 C   0  0  1  0  0  0  0  0  0  0  0  0
   -2.6490   12.9250   -4.0220 O   0  0  0  0  0  0  0  0  0  0  0  0
   -0.9570   15.8370   -4.5010 C   0  0  2  0  0  0  0  0  0  0  0  0
   -0.8150   14.3380   -4.7550 C   0  0  1  0  0  0  0  0  0  0  0  0
    0.1570   16.6900   -5.0890 C   0  0  0  0  0  0  0  0  0  0  0  0
    0.5210   13.8490   -4.7900 O   0  0  0  0  0  0  0  0  0  0  0  0
  2  1  1  1
  2  3  1  0
  2  4  1  0
  3  5  1  0
  3  6  1  6
  4  7  1  0
  5  8  1  0
  6  9  1  0
  8  9  1  1
  5 10  1  1
  7 10  1  0
  8 11  1  0
  8 12  1  0
 12 13  1  6
 11 14  1  0
 12 15  1  0
 14 15  1  0
 14 16  1  1
 15 17  1  1
M  END
>  <%Rank>  (1563) 
nan

>  <N_hits>  (1563) 
2

>  <submitter_name>  (1563) 
nan

>  <original SMILES>  (1563) 
nan

>  <∆G_unbound>  (1563) 
0.690665

>  <∆G_bound>  (1563) 
-2.927264

>  <regarded>  (1563) 
5CB5_0_M_δ,mArh-5l9k_B_0_B_γ

>  <ref_pdb>  (1563) 
nan

>  <smiles>  (1563) 
CC1OC2(CNC3C(N)NCNC32)C(O)C1O

>  <submitter_email>  (1563) 
nan

>  <disregarded>  (1563) 


>  <LE>  (1563) 
-0.212819

>  <submitter_institution>  (1563) 
nan

>  <ref_mols>  (1563) 
5CB5_0_M,mArh-5l9k_B_0_B

>  <N_constrained_atoms>  (1563) 
17.0

>  <ref_url>  (1563) 
nan

>  <method>  (1563) 
nan

>  <comRMSD>  (1563) 
nan

>  <N_unconstrained_atoms>  (1563) 
0.0

>  <∆∆G>  (1563) 
-3.617929

>  <runtime>  (1563) 
24.066865

>  <generation_date>  (1563) 
nan

$$$$
