Fragmenstein_NSP3_quicktest1
     RDKit          2D

  3  2  0  0  0  0  0  0  0  0999 V2000
    2.5981   -0.0000    0.0000 F   0  0  0  0  0  0  0  0  0  0  0  0
    1.2990    0.7500    0.0000 O   0  0  0  0  0  0  0  0  0  0  0  0
    0.0000    0.0000    0.0000 O   0  0  0  0  0  0  0  0  0  0  0  0
  1  2  1  0
  2  3  1  0
M  END
>  <%Rank>  (1) 
Sorted by 2x RSMD (high is bad) + LE (high is bad) - 3x N_constrained_atoms/(20+N_constrained_atoms) + N_unconstrained_atoms/N_constrained_atoms

>  <N_hits>  (1) 
Number of hits used

>  <submitter_name>  (1) 
Matteo Ferla

>  <original SMILES>  (1) 
molecule smiles

>  <∆G_unbound>  (1) 
Gibbs Free energy of ligand unbound

>  <∆G_bound>  (1) 
Gibbs Free energy of ligand bound

>  <regarded>  (1) 
Fragments used for mapping

>  <ref_pdb>  (1) 
All ligands were evaluated against the apo crystal of 6WOJ

>  <smiles>  (1) 
molecule smiles used

>  <submitter_email>  (1) 
matteo@well.ox.ac.uk

>  <disregarded>  (1) 
Fragments rejected for mapping

>  <LE>  (1) 
Ligand efficiency (kcal/mol/N_heavy)

>  <submitter_institution>  (1) 
Universtity of Oxford

>  <ref_mols>  (1) 
all reference molecules

>  <N_constrained_atoms>  (1) 
Number of atoms in the submission that were constrained

>  <ref_url>  (1) 
https://github.com/matteoferla/Fragmenstein

>  <method>  (1) 
Fragmenstein Postera rescored (permissive mapping). Rank = 2x RSMD + 1 x LE - 3x Nc/(20+Nc) ranked + 1x Nu/Nc

>  <comRMSD>  (1) 
Combined RMSD from the atoms of the fragments that contributed to the position of the followup

>  <N_unconstrained_atoms>  (1) 
Number of heavy atoms in the submission that were NOT constrained

>  <∆∆G>  (1) 
Difference in Gibbs Free energy relative to unbound molecule in kcal/mol (ref2015 scorefxn; negative=Good)

>  <runtime>  (1) 
seconds it took

>  <generation_date>  (1) 
2020-09-21T15:44:37.868053

$$$$
mArh-x0104_0_A-mArh-5dus_0_A
     RDKit          3D

 52 57  0  0  0  0  0  0  0  0999 V2000
   -6.8450   14.7840    2.7510 N   0  0  0  0  0  0  0  0  0  0  0  0
   -8.0600   15.1010    3.2760 C   0  0  0  0  0  0  0  0  0  0  0  0
   -8.1340   15.1690    4.6260 N   0  0  0  0  0  0  0  0  0  0  0  0
   -6.4210   14.3020    1.4410 C   0  0  2  0  0  0  0  0  0  0  0  0
   -8.9550   15.2920    2.4490 O   0  0  0  0  0  0  0  0  0  0  0  0
   -5.0350   14.8440    1.0350 C   0  0  0  0  0  0  0  0  0  0  0  0
   -7.4870   14.6270    0.4150 C   0  0  0  0  0  0  0  0  0  0  0  0
   -4.7280   14.7560   -0.4090 N   0  0  0  0  0  0  0  0  0  0  0  0
   -7.1660   15.1430   -0.7810 C   0  0  0  0  0  0  0  0  0  0  0  0
   -9.2880   15.1530    5.3870 C   0  0  0  0  0  0  0  0  0  0  0  0
   -5.7610   15.4390   -1.1820 C   0  0  2  0  0  0  0  0  0  0  0  0
   -9.3380   15.2040    6.7640 C   0  0  0  0  0  0  0  0  0  0  0  0
  -10.8420   15.0640    4.6960 S   0  0  0  0  0  0  0  0  0  0  0  0
   -3.3590   15.2480   -0.6680 N   0  0  0  0  0  0  0  0  0  0  0  0
   -5.5990   15.0560   -2.5310 O   0  0  0  0  0  0  0  0  0  0  0  0
  -11.5960   15.0900    6.2380 C   0  0  0  0  0  0  0  0  0  0  0  0
  -10.6740   15.1680    7.2590 C   0  0  0  0  0  0  0  0  0  0  0  0
   -2.4600   14.3160    0.0030 C   0  0  2  0  0  0  0  0  0  0  0  0
   -3.0450   14.9790   -2.0600 C   0  0  0  0  0  0  0  0  0  0  0  0
   -2.2320   14.5570    1.4470 C   0  0  2  0  0  0  0  0  0  0  0  0
   -1.1390   14.3400   -0.8250 C   0  0  1  0  0  0  0  0  0  0  0  0
   -1.7410   14.3420   -2.1350 N   0  0  0  0  0  0  0  0  0  0  0  0
   -3.3230   15.3190    2.0140 N   0  0  0  0  0  0  0  0  0  0  0  0
   -1.1240   14.7790   -3.3300 C   0  0  1  0  0  0  0  0  0  0  0  0
   -1.0360   15.2450    1.6650 N   0  0  0  0  0  0  0  0  0  0  0  0
   -0.1800   15.3050   -0.5010 N   0  0  0  0  0  0  0  0  0  0  0  0
    0.1090   15.4820   -3.2210 O   0  0  0  0  0  0  0  0  0  0  0  0
   -0.9500   13.7780   -4.4980 C   0  0  2  0  0  0  0  0  0  0  0  0
    0.1030   14.9700    0.8460 C   0  0  0  0  0  0  0  0  0  0  0  0
   -0.8970   12.3870   -4.2100 O   0  0  0  0  0  0  0  0  0  0  0  0
    0.1500   15.6940   -4.6250 C   0  0  2  0  0  0  0  0  0  0  0  0
    0.3030   14.3000   -5.1770 C   0  0  1  0  0  0  0  0  0  0  0  0
    0.7980   16.9340   -5.1620 C   0  0  0  0  0  0  0  0  0  0  0  0
    1.4190   13.4560   -4.8710 O   0  0  0  0  0  0  0  0  0  0  0  0
   -0.0350   17.4510   -6.1860 O   0  0  0  0  0  0  0  0  0  0  0  0
   -1.4320   18.2140   -5.9570 P   0  0  1  0  0  0  0  0  0  0  0  0
   -2.5810   17.5860   -6.6820 O   0  0  0  0  0  0  0  0  0  0  0  0
   -1.6750   18.3950   -4.4070 O   0  0  0  0  0  0  0  0  0  0  0  0
   -1.0320   19.6360   -6.4160 O   0  0  0  0  0  0  0  0  0  0  0  0
   -0.2360   19.9930   -7.7120 P   0  0  1  0  0  0  0  0  0  0  0  0
    1.0250   20.7810   -7.5610 O   0  0  0  0  0  0  0  0  0  0  0  0
   -0.0820   18.6510   -8.5890 O   0  0  0  0  0  0  0  0  0  0  0  0
   -1.3630   20.7600   -8.5270 O   0  0  0  0  0  0  0  0  0  0  0  0
   -1.8700   21.8990   -7.8350 C   0  0  0  0  0  0  0  0  0  0  0  0
   -3.3160   22.1530   -8.2360 C   0  0  2  0  0  0  0  0  0  0  0  0
   -3.8400   23.5630   -8.0010 C   0  0  1  0  0  0  0  0  0  0  0  0
   -4.1480   21.2740   -7.4560 O   0  0  0  0  0  0  0  0  0  0  0  0
   -4.6640   24.0770   -9.0610 O   0  0  0  0  0  0  0  0  0  0  0  0
   -5.1880   22.0310   -6.8620 C   0  0  2  0  0  0  0  0  0  0  0  0
   -4.5970   23.4100   -6.6870 C   0  0  2  0  0  0  0  0  0  0  0  0
   -5.6110   21.4930   -5.6260 O   0  0  0  0  0  0  0  0  0  0  0  0
   -5.5740   24.4160   -6.4450 O   0  0  0  0  0  0  0  0  0  0  0  0
  1  2  1  0
  2  3  1  0
  4  1  1  1
  2  5  2  0
  4  6  1  0
  4  7  1  0
  6  8  1  0
  7  9  2  0
  3 10  1  0
  8 11  1  0
  9 11  1  0
 10 12  2  0
 10 13  1  0
  8 14  1  0
 11 15  1  6
 13 16  1  0
 12 17  1  0
 16 17  2  0
 18 14  1  6
 14 19  1  0
 18 20  1  0
 18 21  1  0
 19 22  1  0
 21 22  1  0
 20 23  1  6
 24 22  1  1
 20 25  1  0
 21 26  1  1
 24 27  1  0
 24 28  1  0
 25 29  1  0
 26 29  1  0
 28 30  1  1
 27 31  1  0
 28 32  1  0
 31 32  1  0
 31 33  1  1
 32 34  1  1
 33 35  1  0
 35 36  1  0
 36 37  2  0
 36 38  1  1
 36 39  1  0
 39 40  1  0
 40 41  2  0
 40 42  1  6
 40 43  1  0
 43 44  1  0
 45 44  1  1
 45 46  1  0
 45 47  1  0
 46 48  1  6
 47 49  1  0
 46 50  1  0
 49 50  1  0
 49 51  1  1
 50 52  1  6
M  END
>  <%Rank>  (2) 
0.990099

>  <N_hits>  (2) 
2

>  <submitter_name>  (2) 
nan

>  <original SMILES>  (2) 
nan

>  <∆G_unbound>  (2) 
17.207001

>  <∆G_bound>  (2) 
-12.222323

>  <regarded>  (2) 
mArh-x0104_0_A,mArh-5dus_0_A

>  <ref_pdb>  (2) 
nan

>  <smiles>  (2) 
NC1NCNC2C1N(N1CC(NC(=O)Nc3cccs3)C=CC1O)CN2C1OC(CO[P@@](=O)(O)O[P@@](=O)(O)OCC2OC(O)C(O)C2O)C(O)C1O

>  <submitter_email>  (2) 
nan

>  <disregarded>  (2) 


>  <LE>  (2) 
-0.565949

>  <submitter_institution>  (2) 
nan

>  <ref_mols>  (2) 
mArh-x0104_0_A,mArh-5dus_0_A

>  <N_constrained_atoms>  (2) 
52.0

>  <ref_url>  (2) 
nan

>  <method>  (2) 
nan

>  <comRMSD>  (2) 
0.58

>  <N_unconstrained_atoms>  (2) 
0.0

>  <∆∆G>  (2) 
-29.429324

>  <runtime>  (2) 
48.796073

>  <generation_date>  (2) 
nan

$$$$
mArh-5cb5_E_0_E-mArh-5cb5_B_0_B
     RDKit          3D

 36 39  0  0  0  0  0  0  0  0999 V2000
   -1.6010   18.3170   -6.2470 P   0  0  1  0  0  0  0  0  0  0  0  0
   -0.1800   17.5940   -6.3960 O   0  0  0  0  0  0  0  0  0  0  0  0
    0.4620   16.9530   -5.3060 C   0  0  0  0  0  0  0  0  0  0  0  0
   -2.7390   17.6010   -6.8780 O   0  0  0  0  0  0  0  0  0  0  0  0
   -1.7790   18.5540   -4.6790 O   0  0  0  0  0  0  0  0  0  0  0  0
   -1.3500   19.7700   -6.7770 O   0  0  0  0  0  0  0  0  0  0  0  0
   -0.3430   20.0070   -7.9750 P   0  0  1  0  0  0  0  0  0  0  0  0
    0.9210   20.7180   -7.6660 O   0  0  0  0  0  0  0  0  0  0  0  0
   -0.1520   18.5890   -8.6940 O   0  0  0  0  0  0  0  0  0  0  0  0
   -1.2830   20.7330   -9.0260 O   0  0  0  0  0  0  0  0  0  0  0  0
   -0.3820   15.8060   -4.7590 C   0  0  2  0  0  0  0  0  0  0  0  0
   -1.7990   21.9720   -8.6050 C   0  0  0  0  0  0  0  0  0  0  0  0
   -0.2380   15.6960   -3.3470 O   0  0  0  0  0  0  0  0  0  0  0  0
   -0.1590   14.3600   -5.2040 C   0  0  1  0  0  0  0  0  0  0  0  0
    1.1240   13.8650   -4.8010 O   0  0  0  0  0  0  0  0  0  0  0  0
   -1.2010   13.7020   -4.3230 C   0  0  2  0  0  0  0  0  0  0  0  0
   -0.8610   14.4380   -3.0210 C   0  0  2  0  0  0  0  0  0  0  0  0
   -3.2720   22.0890   -8.9660 C   0  0  2  0  0  0  0  0  0  0  0  0
   -1.0050   12.2980   -4.2560 O   0  0  0  0  0  0  0  0  0  0  0  0
   -3.7750   23.5040   -8.7200 C   0  0  1  0  0  0  0  0  0  0  0  0
   -4.0780   21.2160   -8.1490 O   0  0  0  0  0  0  0  0  0  0  0  0
   -1.8770   14.7000   -2.0480 N   0  0  0  0  0  0  0  0  0  0  0  0
   -4.4080   24.1370   -9.8100 O   0  0  0  0  0  0  0  0  0  0  0  0
   -5.2190   21.9370   -7.6800 C   0  0  2  0  0  0  0  0  0  0  0  0
   -4.7720   23.3830   -7.5850 C   0  0  2  0  0  0  0  0  0  0  0  0
   -1.6420   14.7370   -0.7290 C   0  0  0  0  0  0  0  0  0  0  0  0
   -3.2120   14.9660   -2.2540 C   0  0  0  0  0  0  0  0  0  0  0  0
   -5.6090   21.4960   -6.3780 O   0  0  0  0  0  0  0  0  0  0  0  0
   -5.8650   24.2550   -7.9280 O   0  0  0  0  0  0  0  0  0  0  0  0
   -2.8620   15.0410   -0.1560 C   0  0  0  0  0  0  0  0  0  0  0  0
   -0.4660   14.5300   -0.1240 N   0  0  0  0  0  0  0  0  0  0  0  0
   -3.8480   15.1810   -1.1180 N   0  0  0  0  0  0  0  0  0  0  0  0
   -2.8670   15.1540    1.2320 C   0  0  0  0  0  0  0  0  0  0  0  0
   -0.5960   14.6490    1.1940 C   0  0  0  0  0  0  0  0  0  0  0  0
   -4.0010   15.4800    1.9540 N   0  0  0  0  0  0  0  0  0  0  0  0
   -1.7070   14.9420    1.8960 N   0  0  0  0  0  0  0  0  0  0  0  0
  1  2  1  0
  2  3  1  0
  1  4  2  0
  1  5  1  1
  1  6  1  0
  6  7  1  0
  7  8  2  0
  7  9  1  6
  7 10  1  0
 11  3  1  6
 10 12  1  0
 11 13  1  0
 11 14  1  0
 14 15  1  1
 14 16  1  0
 13 17  1  0
 16 17  1  0
 18 12  1  1
 16 19  1  1
 18 20  1  0
 18 21  1  0
 17 22  1  6
 20 23  1  6
 21 24  1  0
 20 25  1  0
 24 25  1  0
 22 26  1  0
 22 27  1  0
 24 28  1  1
 25 29  1  6
 26 30  2  0
 26 31  1  0
 27 32  2  0
 30 32  1  0
 30 33  1  0
 31 34  2  0
 33 35  1  0
 33 36  2  0
 34 36  1  0
M  END
>  <%Rank>  (3) 
1.980198

>  <N_hits>  (3) 
2

>  <submitter_name>  (3) 
nan

>  <original SMILES>  (3) 
nan

>  <∆G_unbound>  (3) 
5.259261

>  <∆G_bound>  (3) 
-16.34341

>  <regarded>  (3) 
mArh-5cb5_E_0_E,mArh-5cb5_B_0_B

>  <ref_pdb>  (3) 
nan

>  <smiles>  (3) 
Nc1ncnc2c1ncn2C1OC(CO[P@@](=O)(O)O[P@@](=O)(O)OCC2OC(O)C(O)C2O)C(O)C1O

>  <submitter_email>  (3) 
nan

>  <disregarded>  (3) 


>  <LE>  (3) 
-0.600074

>  <submitter_institution>  (3) 
nan

>  <ref_mols>  (3) 
mArh-5cb5_E_0_E,mArh-5cb5_B_0_B

>  <N_constrained_atoms>  (3) 
36.0

>  <ref_url>  (3) 
nan

>  <method>  (3) 
nan

>  <comRMSD>  (3) 
0.518558

>  <N_unconstrained_atoms>  (3) 
0.0

>  <∆∆G>  (3) 
-21.602671

>  <runtime>  (3) 
32.474544

>  <generation_date>  (3) 
nan

$$$$
mArh-6fx_7_0A-mArh-x0159_0_B
     RDKit          3D

 58 64  0  0  0  0  0  0  0  0999 V2000
   -1.5950   18.4250   -5.8940 P   0  0  2  0  0  0  0  0  0  0  0  0
   -0.9990   16.9350   -5.6920 O   0  0  0  0  0  0  0  0  0  0  0  0
    0.3490   16.7830   -5.2270 C   0  0  0  0  0  0  0  0  0  0  0  0
   -2.1940   19.0230   -4.6870 O   0  0  0  0  0  0  0  0  0  0  0  0
   -2.6540   18.2010   -7.0590 O   0  0  0  0  0  0  0  0  0  0  0  0
   -0.4950   19.3590   -6.5090 O   0  0  0  0  0  0  0  0  0  0  0  0
   -0.3910   19.8920   -7.9720 P   0  0  2  0  0  0  0  0  0  0  0  0
   -0.0200   18.7990   -8.9140 O   0  0  0  0  0  0  0  0  0  0  0  0
    0.7450   21.0110   -7.8730 O   0  0  0  0  0  0  0  0  0  0  0  0
   -1.7370   20.7250   -8.3570 O   0  0  0  0  0  0  0  0  0  0  0  0
    0.5630   15.4190   -4.5180 C   0  0  1  0  0  0  0  0  0  0  0  0
   -1.9310   22.0370   -7.7970 C   0  0  0  0  0  0  0  0  0  0  0  0
   -0.0690   15.4650   -3.2250 O   0  0  0  0  0  0  0  0  0  0  0  0
   -0.0270   14.1450   -5.1790 C   0  0  1  0  0  0  0  0  0  0  0  0
    0.7460   12.9650   -4.8890 O   0  0  0  0  0  0  0  0  0  0  0  0
   -1.3780   13.9150   -4.4950 C   0  0  2  0  0  0  0  0  0  0  0  0
   -1.4210   15.0550   -3.4830 C   0  0  1  0  0  0  0  0  0  0  0  0
   -3.3400   22.6540   -8.0440 C   0  0  2  0  0  0  0  0  0  0  0  0
   -1.3910   12.6190   -3.8690 O   0  0  0  0  0  0  0  0  0  0  0  0
    1.5060   12.5160   -6.0060 C   0  0  0  0  0  0  0  0  0  0  0  0
   -4.5780   21.7390   -7.9340 C   0  0  1  0  0  0  0  0  0  0  0  0
   -3.4840   23.3210   -9.3330 O   0  0  0  0  0  0  0  0  0  0  0  0
   -2.2030   15.0580   -2.2510 N   0  0  0  0  0  0  0  0  0  0  0  0
   -5.2680   21.8900   -6.7040 O   0  0  0  0  0  0  0  0  0  0  0  0
    0.7240   11.4990   -6.8740 C   0  0  0  0  0  0  0  0  0  0  0  0
   -4.3770   22.5070  -10.1030 C   0  0  1  0  0  0  0  0  0  0  0  0
   -5.4480   22.1830   -9.1070 C   0  0  2  0  0  0  0  0  0  0  0  0
   -1.7860   14.9110   -0.9340 C   0  0  0  0  0  0  0  0  0  0  0  0
   -3.5560   15.2690   -2.2270 C   0  0  0  0  0  0  0  0  0  0  0  0
   -4.8670   23.1810  -11.2580 O   0  0  0  0  0  0  0  0  0  0  0  0
   -6.1730   23.3870   -8.7980 O   0  0  0  0  0  0  0  0  0  0  0  0
    1.6120   10.8730   -7.9660 C   0  0  0  0  0  0  0  0  0  0  0  0
   -2.9510   15.0950   -0.2020 C   0  0  0  0  0  0  0  0  0  0  0  0
   -0.5560   14.6780   -0.4250 N   0  0  0  0  0  0  0  0  0  0  0  0
   -4.0370   15.2950   -1.0170 N   0  0  0  0  0  0  0  0  0  0  0  0
    0.8770   10.4600   -9.2530 C   0  0  0  0  0  0  0  0  0  0  0  0
   -2.8500   15.0690    1.1790 C   0  0  0  0  0  0  0  0  0  0  0  0
   -0.5920   14.6460    0.9310 C   0  0  0  0  0  0  0  0  0  0  0  0
   -3.9600   15.3110    1.9480 N   0  0  0  0  0  0  0  0  0  0  0  0
    1.4970    9.2640   -9.8920 N   0  0  0  0  0  0  0  0  0  0  0  0
   -1.6470   14.8230    1.7480 N   0  0  0  0  0  0  0  0  0  0  0  0
    1.8220    8.1410   -9.0030 C   0  0  0  0  0  0  0  0  0  0  0  0
    2.2190    9.4850  -11.0300 C   0  0  0  0  0  0  0  0  0  0  0  0
    0.9590    6.9260   -9.3510 C   0  0  0  0  0  0  0  0  0  0  0  0
    2.0760   10.6380  -11.7570 N   0  0  0  0  0  0  0  0  0  0  0  0
    3.1230    8.7020  -11.5950 N   0  0  0  0  0  0  0  0  0  0  0  0
    3.5800    9.3820  -12.7020 C   0  0  0  0  0  0  0  0  0  0  0  0
    2.9330   10.6040  -12.8230 C   0  0  0  0  0  0  0  0  0  0  0  0
    1.3860    5.7360   -8.5440 C   0  0  0  0  0  0  0  0  0  0  0  0
    2.3100    4.8190   -9.0530 C   0  0  0  0  0  0  0  0  0  0  0  0
    0.8580    5.5390   -7.2690 C   0  0  0  0  0  0  0  0  0  0  0  0
    3.1840   11.5190  -13.8420 C   0  0  0  0  0  0  0  0  0  0  0  0
    4.5530    9.0230  -13.6490 C   0  0  0  0  0  0  0  0  0  0  0  0
    2.7010    3.7230   -8.2960 C   0  0  0  0  0  0  0  0  0  0  0  0
    1.2460    4.4500   -6.5150 C   0  0  0  0  0  0  0  0  0  0  0  0
    4.1540   11.1510  -14.7760 C   0  0  0  0  0  0  0  0  0  0  0  0
    4.8290    9.9280  -14.6860 C   0  0  0  0  0  0  0  0  0  0  0  0
    2.1740    3.5420   -7.0350 C   0  0  0  0  0  0  0  0  0  0  0  0
  1  2  1  0
  2  3  1  0
  1  4  2  0
  1  5  1  6
  1  6  1  0
  6  7  1  0
  7  8  2  0
  7  9  1  1
  7 10  1  0
 11  3  1  6
 10 12  1  0
 11 13  1  0
 11 14  1  0
 14 15  1  1
 14 16  1  0
 13 17  1  0
 16 17  1  0
 18 12  1  6
 16 19  1  1
 15 20  1  0
 18 21  1  0
 18 22  1  0
 17 23  1  1
 21 24  1  1
 20 25  1  0
 22 26  1  0
 21 27  1  0
 26 27  1  0
 23 28  1  0
 23 29  1  0
 26 30  1  6
 27 31  1  1
 25 32  1  0
 28 33  2  0
 28 34  1  0
 29 35  2  0
 33 35  1  0
 32 36  1  0
 33 37  1  0
 34 38  2  0
 37 39  1  0
 36 40  1  0
 37 41  2  0
 38 41  1  0
 40 42  1  0
 40 43  1  0
 42 44  1  0
 43 45  1  0
 43 46  2  0
 46 47  1  0
 45 48  1  0
 47 48  2  0
 44 49  1  0
 49 50  2  0
 49 51  1  0
 48 52  1  0
 47 53  1  0
 50 54  1  0
 51 55  2  0
 52 56  2  0
 53 57  2  0
 56 57  1  0
 54 58  2  0
 55 58  1  0
M  END
>  <%Rank>  (4) 
2.970297

>  <N_hits>  (4) 
2

>  <submitter_name>  (4) 
nan

>  <original SMILES>  (4) 
nan

>  <∆G_unbound>  (4) 
2.899648

>  <∆G_bound>  (4) 
-20.075168

>  <regarded>  (4) 
mArh-6fx_7_0A,mArh-x0159_0_B

>  <ref_pdb>  (4) 
nan

>  <smiles>  (4) 
Nc1ncnc2c1ncn2C1OC(CO[P@](=O)(O)O[P@](=O)(O)OCC2OC(O)C(O)C2O)C(OCCCCN(CCc2ccccc2)c2nc3ccccc3[nH]2)C1O

>  <submitter_email>  (4) 
nan

>  <disregarded>  (4) 


>  <LE>  (4) 
-0.396118

>  <submitter_institution>  (4) 
nan

>  <ref_mols>  (4) 
mArh-6fx_7_0A,mArh-x0159_0_B

>  <N_constrained_atoms>  (4) 
54.0

>  <ref_url>  (4) 
nan

>  <method>  (4) 
nan

>  <comRMSD>  (4) 
0.519455

>  <N_unconstrained_atoms>  (4) 
4.0

>  <∆∆G>  (4) 
-22.974816

>  <runtime>  (4) 
61.229811

>  <generation_date>  (4) 
nan

$$$$
mArh-x0417_0_B-mArh-5cb5_O_0_O
     RDKit          3D

 55 60  0  0  0  0  0  0  0  0999 V2000
   -2.6470   31.2500  -17.2050 N   0  0  0  0  0  0  0  0  0  0  0  0
   -1.4360   31.8850  -17.7070 C   0  0  0  0  0  0  0  0  0  0  0  0
   -2.4550   30.5740  -15.9070 C   0  0  2  0  0  0  0  0  0  0  0  0
   -2.5120   29.0520  -15.9620 C   0  0  0  0  0  0  0  0  0  0  0  0
   -3.6570   30.9310  -15.0110 C   0  0  0  0  0  0  0  0  0  0  0  0
   -3.9700   32.0820  -14.8020 O   0  0  0  0  0  0  0  0  0  0  0  0
   -3.2710   28.6780  -14.7120 C   0  0  0  0  0  0  0  0  0  0  0  0
   -4.2370   29.7380  -14.5490 N   0  0  0  0  0  0  0  0  0  0  0  0
   -5.3130   29.6360  -13.6060 C   0  0  0  0  0  0  0  0  0  0  0  0
   -6.5680   30.1700  -13.9330 C   0  0  0  0  0  0  0  0  0  0  0  0
   -5.1840   29.0220  -12.3550 C   0  0  0  0  0  0  0  0  0  0  0  0
   -3.9750   28.4980  -12.1070 O   0  0  0  0  0  0  0  0  0  0  0  0
   -7.6510   30.1030  -13.0510 C   0  0  0  0  0  0  0  0  0  0  0  0
   -6.2650   28.9630  -11.4690 C   0  0  0  0  0  0  0  0  0  0  0  0
   -3.8390   27.1770  -12.6490 C   0  0  0  0  0  0  0  0  0  0  0  0
   -7.4970   29.5020  -11.8160 C   0  0  0  0  0  0  0  0  0  0  0  0
   -5.0370   26.3320  -12.2000 C   0  0  0  0  0  0  0  0  0  0  0  0
   -4.5540   24.9930  -11.6620 C   0  0  0  0  0  0  0  0  0  0  0  0
   -5.4870   24.3290  -10.6470 C   0  0  0  0  0  0  0  0  0  0  0  0
   -4.8890   23.1760  -10.0280 O   0  0  0  0  0  0  0  0  0  0  0  0
   -4.0110   23.2490   -8.8680 C   0  0  1  0  0  0  0  0  0  0  0  0
   -4.7570   23.2340   -7.5450 C   0  0  1  0  0  0  0  0  0  0  0  0
   -3.4120   21.8380   -8.8030 C   0  0  1  0  0  0  0  0  0  0  0  0
   -5.7380   24.2550   -7.4090 O   0  0  0  0  0  0  0  0  0  0  0  0
   -2.1170   21.6590   -7.9950 C   0  0  0  0  0  0  0  0  0  0  0  0
   -5.3930   21.8550   -7.5850 C   0  0  1  0  0  0  0  0  0  0  0  0
   -4.4300   21.0050   -8.1930 O   0  0  0  0  0  0  0  0  0  0  0  0
   -5.6580   21.4230   -6.2670 O   0  0  0  0  0  0  0  0  0  0  0  0
   -1.6700   20.3340   -8.2450 O   0  0  0  0  0  0  0  0  0  0  0  0
   -0.1960   19.8770   -7.8420 P   0  0  2  0  0  0  0  0  0  0  0  0
    0.8340   20.9490   -7.8640 O   0  0  0  0  0  0  0  0  0  0  0  0
    0.0680   18.6980   -8.8880 O   0  0  0  0  0  0  0  0  0  0  0  0
   -0.3420   19.1240   -6.4640 O   0  0  0  0  0  0  0  0  0  0  0  0
   -1.5680   18.2430   -6.0150 P   0  0  2  0  0  0  0  0  0  0  0  0
   -0.9200   16.9550   -5.3260 O   0  0  0  0  0  0  0  0  0  0  0  0
   -2.5410   17.9330   -7.0840 O   0  0  0  0  0  0  0  0  0  0  0  0
   -2.1540   19.0820   -4.8040 O   0  0  0  0  0  0  0  0  0  0  0  0
    0.4860   16.9460   -5.0830 C   0  0  0  0  0  0  0  0  0  0  0  0
    0.8900   15.6390   -4.3790 C   0  0  1  0  0  0  0  0  0  0  0  0
    0.1960   15.5820   -3.1150 O   0  0  0  0  0  0  0  0  0  0  0  0
    0.4690   14.3620   -5.1310 C   0  0  1  0  0  0  0  0  0  0  0  0
    1.5260   13.4050   -5.1080 O   0  0  0  0  0  0  0  0  0  0  0  0
   -0.7480   13.8120   -4.3730 C   0  0  2  0  0  0  0  0  0  0  0  0
   -1.0560   14.9540   -3.4090 C   0  0  1  0  0  0  0  0  0  0  0  0
   -0.5430   12.4980   -3.8770 O   0  0  0  0  0  0  0  0  0  0  0  0
   -1.9470   14.9510   -2.2540 N   0  0  0  0  0  0  0  0  0  0  0  0
   -1.6110   14.8660   -0.9070 C   0  0  0  0  0  0  0  0  0  0  0  0
   -3.3060   15.0700   -2.3070 C   0  0  0  0  0  0  0  0  0  0  0  0
   -2.8310   14.9760   -0.2420 C   0  0  0  0  0  0  0  0  0  0  0  0
   -0.4010   14.7340   -0.3300 N   0  0  0  0  0  0  0  0  0  0  0  0
   -3.8690   15.0890   -1.1250 N   0  0  0  0  0  0  0  0  0  0  0  0
   -2.8150   14.9680    1.1540 C   0  0  0  0  0  0  0  0  0  0  0  0
   -0.5150   14.7200    1.0180 C   0  0  0  0  0  0  0  0  0  0  0  0
   -3.9750   15.1170    1.8880 N   0  0  0  0  0  0  0  0  0  0  0  0
   -1.6280   14.8250    1.7830 N   0  0  0  0  0  0  0  0  0  0  0  0
  1  2  1  0
  3  1  1  6
  3  4  1  0
  3  5  1  0
  5  6  2  0
  4  7  1  0
  5  8  1  0
  7  8  1  0
  8  9  1  0
  9 10  2  0
  9 11  1  0
 11 12  1  0
 10 13  1  0
 11 14  2  0
 12 15  1  0
 13 16  2  0
 14 16  1  0
 15 17  1  0
 17 18  1  0
 18 19  1  0
 19 20  1  0
 21 20  1  6
 21 22  1  0
 21 23  1  0
 22 24  1  6
 23 25  1  1
 22 26  1  0
 23 27  1  0
 26 27  1  0
 26 28  1  1
 25 29  1  0
 29 30  1  0
 30 31  2  0
 30 32  1  6
 30 33  1  0
 33 34  1  0
 34 35  1  0
 34 36  2  0
 34 37  1  1
 35 38  1  0
 39 38  1  6
 39 40  1  0
 39 41  1  0
 41 42  1  1
 41 43  1  0
 40 44  1  0
 43 44  1  0
 43 45  1  1
 44 46  1  1
 46 47  1  0
 46 48  1  0
 47 49  2  0
 47 50  1  0
 48 51  2  0
 49 51  1  0
 49 52  1  0
 50 53  2  0
 52 54  1  0
 52 55  2  0
 53 55  1  0
M  END
>  <%Rank>  (5) 
3.960396

>  <N_hits>  (5) 
2

>  <submitter_name>  (5) 
nan

>  <original SMILES>  (5) 
nan

>  <∆G_unbound>  (5) 
5.009507

>  <∆G_bound>  (5) 
-20.288258

>  <regarded>  (5) 
mArh-x0417_0_B,mArh-5cb5_O_0_O

>  <ref_pdb>  (5) 
nan

>  <smiles>  (5) 
CNC1CCN(c2ccccc2OCCCCOC2C(CO[P@](=O)(O)O[P@](=O)(O)OCC3OC(n4cnc5c(N)ncnc54)C(O)C3O)OC(O)C2O)C1=O

>  <submitter_email>  (5) 
nan

>  <disregarded>  (5) 


>  <LE>  (5) 
-0.459959

>  <submitter_institution>  (5) 
nan

>  <ref_mols>  (5) 
mArh-x0417_0_B,mArh-5cb5_O_0_O

>  <N_constrained_atoms>  (5) 
51.0

>  <ref_url>  (5) 
nan

>  <method>  (5) 
nan

>  <comRMSD>  (5) 
0.534819

>  <N_unconstrained_atoms>  (5) 
4.0

>  <∆∆G>  (5) 
-25.297765

>  <runtime>  (5) 
99.303037

>  <generation_date>  (5) 
nan

$$$$
mArh-5cb5_R_0_R-mArh-x0950_1_A
     RDKit          3D

 41 44  0  0  0  0  0  0  0  0999 V2000
   -1.3210   18.1330   -6.1300 P   0  0  1  0  0  0  0  0  0  0  0  0
    0.1060   17.3970   -6.2800 O   0  0  0  0  0  0  0  0  0  0  0  0
    0.8190   16.7380   -5.2300 C   0  0  0  0  0  0  0  0  0  0  0  0
   -2.4700   17.4720   -6.8130 O   0  0  0  0  0  0  0  0  0  0  0  0
   -1.5670   18.2600   -4.5650 O   0  0  0  0  0  0  0  0  0  0  0  0
   -1.0560   19.6220   -6.5440 O   0  0  0  0  0  0  0  0  0  0  0  0
   -0.2950   19.9630   -7.8770 P   0  0  1  0  0  0  0  0  0  0  0  0
    0.9640   20.7310   -7.6800 O   0  0  0  0  0  0  0  0  0  0  0  0
   -0.0400   18.5960   -8.6860 O   0  0  0  0  0  0  0  0  0  0  0  0
   -1.3770   20.6960   -8.7630 O   0  0  0  0  0  0  0  0  0  0  0  0
    0.0210   15.5550   -4.7000 C   0  0  2  0  0  0  0  0  0  0  0  0
   -1.9720   21.8120   -8.1260 C   0  0  0  0  0  0  0  0  0  0  0  0
   -0.1710   15.5690   -3.2910 O   0  0  0  0  0  0  0  0  0  0  0  0
    0.0940   14.0170   -4.9740 C   0  0  1  0  0  0  0  0  0  0  0  0
    1.2550   13.0360   -4.6280 C   0  0  2  0  0  0  0  0  0  0  0  0
   -1.2600   13.6600   -4.3440 C   0  0  2  0  0  0  0  0  0  0  0  0
   -1.4060   14.8490   -3.3590 C   0  0  1  0  0  0  0  0  0  0  0  0
   -3.3330   22.1160   -8.7170 C   0  0  2  0  0  0  0  0  0  0  0  0
   -1.2520   12.3380   -3.8320 O   0  0  0  0  0  0  0  0  0  0  0  0
    2.6790   13.5090   -4.3910 C   0  0  0  0  0  0  0  0  0  0  0  0
    1.2530   12.0990   -5.7220 O   0  0  0  0  0  0  0  0  0  0  0  0
    0.9260   12.1830   -3.3720 C   0  0  0  0  0  0  0  0  0  0  0  0
   -3.8320   23.4840   -8.3610 C   0  0  1  0  0  0  0  0  0  0  0  0
   -4.3490   21.2560   -8.2180 O   0  0  0  0  0  0  0  0  0  0  0  0
   -2.1220   14.9210   -2.1320 N   0  0  0  0  0  0  0  0  0  0  0  0
   -4.7550   24.0000   -9.3220 O   0  0  0  0  0  0  0  0  0  0  0  0
    0.3450   11.1110   -3.3050 O   0  0  0  0  0  0  0  0  0  0  0  0
    1.3870   12.7550   -2.2290 O   0  0  0  0  0  0  0  0  0  0  0  0
   -5.1410   21.9710   -7.2740 C   0  0  2  0  0  0  0  0  0  0  0  0
   -4.5220   23.1660   -7.0370 C   0  0  2  0  0  0  0  0  0  0  0  0
   -1.7150   14.8660   -0.8280 C   0  0  0  0  0  0  0  0  0  0  0  0
   -3.4790   15.1180   -2.1390 C   0  0  0  0  0  0  0  0  0  0  0  0
   -5.2530   21.2640   -6.0470 O   0  0  0  0  0  0  0  0  0  0  0  0
   -5.4350   24.1810   -6.6290 O   0  0  0  0  0  0  0  0  0  0  0  0
   -2.8830   15.0720   -0.1140 C   0  0  0  0  0  0  0  0  0  0  0  0
   -0.4850   14.6860   -0.3170 N   0  0  0  0  0  0  0  0  0  0  0  0
   -3.9680   15.2110   -0.9410 N   0  0  0  0  0  0  0  0  0  0  0  0
   -2.7820   15.1200    1.2640 C   0  0  0  0  0  0  0  0  0  0  0  0
   -0.5190   14.7270    1.0340 C   0  0  0  0  0  0  0  0  0  0  0  0
   -3.8860   15.3770    2.0290 N   0  0  0  0  0  0  0  0  0  0  0  0
   -1.5820   14.9270    1.8400 N   0  0  0  0  0  0  0  0  0  0  0  0
  1  2  1  0
  2  3  1  0
  1  4  2  0
  1  5  1  1
  1  6  1  0
  6  7  1  0
  7  8  2  0
  7  9  1  6
  7 10  1  0
 11  3  1  1
 10 12  1  0
 11 13  1  0
 11 14  1  0
 14 15  1  1
 14 16  1  0
 13 17  1  0
 16 17  1  0
 18 12  1  1
 16 19  1  1
 15 20  1  1
 15 21  1  0
 15 22  1  0
 18 23  1  0
 18 24  1  0
 17 25  1  1
 23 26  1  6
 22 27  2  0
 22 28  1  0
 24 29  1  0
 23 30  1  0
 29 30  1  0
 25 31  1  0
 25 32  1  0
 29 33  1  1
 30 34  1  6
 31 35  2  0
 31 36  1  0
 32 37  2  0
 35 37  1  0
 35 38  1  0
 36 39  2  0
 38 40  1  0
 38 41  2  0
 39 41  1  0
M  END
>  <%Rank>  (6) 
4.950495

>  <N_hits>  (6) 
2

>  <submitter_name>  (6) 
nan

>  <original SMILES>  (6) 
nan

>  <∆G_unbound>  (6) 
6.779079

>  <∆G_bound>  (6) 
-14.957261

>  <regarded>  (6) 
mArh-5cb5_R_0_R,mArh-x0950_1_A

>  <ref_pdb>  (6) 
nan

>  <smiles>  (6) 
CC(O)(C(=O)O)C1C(CO[P@@](=O)(O)O[P@@](=O)(O)OCC2OC(O)C(O)C2O)OC(n2cnc3c(N)ncnc32)C1O

>  <submitter_email>  (6) 
nan

>  <disregarded>  (6) 


>  <LE>  (6) 
-0.530155

>  <submitter_institution>  (6) 
nan

>  <ref_mols>  (6) 
mArh-5cb5_R_0_R,mArh-x0950_1_A

>  <N_constrained_atoms>  (6) 
41.0

>  <ref_url>  (6) 
nan

>  <method>  (6) 
nan

>  <comRMSD>  (6) 
0.547522

>  <N_unconstrained_atoms>  (6) 
0.0

>  <∆∆G>  (6) 
-21.736341

>  <runtime>  (6) 
38.441084

>  <generation_date>  (6) 
nan

$$$$
mArh-5cb5_R_0_R-mArh-6mea_A_0_A
     RDKit          3D

 36 39  0  0  0  0  0  0  0  0999 V2000
   -1.3780   18.2130   -6.1670 P   0  0  1  0  0  0  0  0  0  0  0  0
    0.1280   17.4080   -6.4800 O   0  0  0  0  0  0  0  0  0  0  0  0
    0.7340   16.8890   -5.3360 C   0  0  0  0  0  0  0  0  0  0  0  0
   -2.4970   17.3940   -6.8240 O   0  0  0  0  0  0  0  0  0  0  0  0
   -1.4970   18.3750   -4.5800 O   0  0  0  0  0  0  0  0  0  0  0  0
   -1.1480   19.6700   -6.6410 O   0  0  0  0  0  0  0  0  0  0  0  0
   -0.3030   20.0690   -7.9000 P   0  0  1  0  0  0  0  0  0  0  0  0
    0.9820   20.7780   -7.6770 O   0  0  0  0  0  0  0  0  0  0  0  0
   -0.0840   18.7010   -8.7300 O   0  0  0  0  0  0  0  0  0  0  0  0
   -1.3880   20.7630   -8.8090 O   0  0  0  0  0  0  0  0  0  0  0  0
   -0.1110   15.7560   -4.8080 C   0  0  2  0  0  0  0  0  0  0  0  0
   -2.1050   21.7610   -8.1250 C   0  0  0  0  0  0  0  0  0  0  0  0
   -0.2630   15.7360   -3.3940 O   0  0  0  0  0  0  0  0  0  0  0  0
    0.2360   14.2880   -5.1220 C   0  0  1  0  0  0  0  0  0  0  0  0
    1.5460   13.8480   -4.7990 O   0  0  0  0  0  0  0  0  0  0  0  0
   -0.8500   13.6490   -4.2340 C   0  0  2  0  0  0  0  0  0  0  0  0
   -1.3600   14.8270   -3.4190 C   0  0  1  0  0  0  0  0  0  0  0  0
   -3.4270   22.1040   -8.7950 C   0  0  2  0  0  0  0  0  0  0  0  0
   -0.3680   12.5080   -3.5620 O   0  0  0  0  0  0  0  0  0  0  0  0
   -3.8830   23.5060   -8.4360 C   0  0  1  0  0  0  0  0  0  0  0  0
   -4.4520   21.2430   -8.2920 O   0  0  0  0  0  0  0  0  0  0  0  0
   -2.0590   14.8600   -2.1760 N   0  0  0  0  0  0  0  0  0  0  0  0
   -4.8210   23.9940   -9.4060 O   0  0  0  0  0  0  0  0  0  0  0  0
   -5.2300   21.9280   -7.2950 C   0  0  2  0  0  0  0  0  0  0  0  0
   -4.5450   23.2300   -7.0850 C   0  0  2  0  0  0  0  0  0  0  0  0
   -1.6110   14.8270   -0.8820 C   0  0  0  0  0  0  0  0  0  0  0  0
   -3.4370   14.9850   -2.1820 C   0  0  0  0  0  0  0  0  0  0  0  0
   -5.1980   21.2030   -6.0740 O   0  0  0  0  0  0  0  0  0  0  0  0
   -5.4600   24.2490   -6.6890 O   0  0  0  0  0  0  0  0  0  0  0  0
   -2.9210   14.9850   -0.1560 C   0  0  0  0  0  0  0  0  0  0  0  0
   -0.3620   14.7140   -0.3690 N   0  0  0  0  0  0  0  0  0  0  0  0
   -3.9850   15.0630   -0.9950 N   0  0  0  0  0  0  0  0  0  0  0  0
   -2.7280   15.0260    1.1910 C   0  0  0  0  0  0  0  0  0  0  0  0
   -0.4220   14.7590    0.9710 C   0  0  0  0  0  0  0  0  0  0  0  0
   -3.8120   15.2150    1.9990 N   0  0  0  0  0  0  0  0  0  0  0  0
   -1.5040   14.9000    1.7500 N   0  0  0  0  0  0  0  0  0  0  0  0
  1  2  1  0
  2  3  1  0
  1  4  2  0
  1  5  1  1
  1  6  1  0
  6  7  1  0
  7  8  2  0
  7  9  1  6
  7 10  1  0
 11  3  1  1
 10 12  1  0
 11 13  1  0
 11 14  1  0
 14 15  1  1
 14 16  1  0
 13 17  1  0
 16 17  1  0
 18 12  1  1
 16 19  1  1
 18 20  1  0
 18 21  1  0
 17 22  1  1
 20 23  1  6
 21 24  1  0
 20 25  1  0
 24 25  1  0
 22 26  1  0
 22 27  1  0
 24 28  1  1
 25 29  1  6
 26 30  2  0
 26 31  1  0
 27 32  2  0
 30 32  1  0
 30 33  1  0
 31 34  2  0
 33 35  1  0
 33 36  2  0
 34 36  1  0
M  END
>  <%Rank>  (7) 
5.940594

>  <N_hits>  (7) 
2

>  <submitter_name>  (7) 
nan

>  <original SMILES>  (7) 
nan

>  <∆G_unbound>  (7) 
7.594996

>  <∆G_bound>  (7) 
-17.78921

>  <regarded>  (7) 
mArh-5cb5_R_0_R,mArh-6mea_A_0_A

>  <ref_pdb>  (7) 
nan

>  <smiles>  (7) 
Nc1ncnc2c1ncn2C1OC(CO[P@@](=O)(O)O[P@@](=O)(O)OCC2OC(O)C(O)C2O)C(O)C1O

>  <submitter_email>  (7) 
nan

>  <disregarded>  (7) 


>  <LE>  (7) 
-0.705117

>  <submitter_institution>  (7) 
nan

>  <ref_mols>  (7) 
mArh-5cb5_R_0_R,mArh-6mea_A_0_A

>  <N_constrained_atoms>  (7) 
36.0

>  <ref_url>  (7) 
nan

>  <method>  (7) 
nan

>  <comRMSD>  (7) 
0.625612

>  <N_unconstrained_atoms>  (7) 
0.0

>  <∆∆G>  (7) 
-25.384207

>  <runtime>  (7) 
39.282374

>  <generation_date>  (7) 
nan

$$$$
mArh-5cb5_F_1_F-mArh-x0417_0_B
     RDKit          3D

 58 63  0  0  0  0  0  0  0  0999 V2000
   -1.5810   18.2480   -5.9200 P   0  0  1  0  0  0  0  0  0  0  0  0
   -0.9390   17.0540   -5.0850 O   0  0  0  0  0  0  0  0  0  0  0  0
    0.4850   16.9460   -5.0480 C   0  0  0  0  0  0  0  0  0  0  0  0
   -2.6260   17.8350   -6.9030 O   0  0  0  0  0  0  0  0  0  0  0  0
   -2.1960   19.2400   -4.8260 O   0  0  0  0  0  0  0  0  0  0  0  0
   -0.3820   19.1230   -6.4450 O   0  0  0  0  0  0  0  0  0  0  0  0
   -0.2710   19.6540   -7.9180 P   0  0  2  0  0  0  0  0  0  0  0  0
   -1.6850   20.2640   -8.2800 O   0  0  0  0  0  0  0  0  0  0  0  0
    0.2000   18.6260   -8.8670 O   0  0  0  0  0  0  0  0  0  0  0  0
    0.7080   20.9150   -7.7910 O   0  0  0  0  0  0  0  0  0  0  0  0
    0.9080   15.5960   -4.4360 C   0  0  1  0  0  0  0  0  0  0  0  0
   -1.9400   21.6430   -8.3700 C   0  0  0  0  0  0  0  0  0  0  0  0
    0.3670   15.4580   -3.1060 O   0  0  0  0  0  0  0  0  0  0  0  0
    0.3910   14.3440   -5.1740 C   0  0  1  0  0  0  0  0  0  0  0  0
    1.3340   13.2780   -5.1730 O   0  0  0  0  0  0  0  0  0  0  0  0
   -0.8730   13.9230   -4.4080 C   0  0  2  0  0  0  0  0  0  0  0  0
   -0.9780   15.0160   -3.3340 C   0  0  1  0  0  0  0  0  0  0  0  0
   -3.1720   21.8280   -9.2420 C   0  0  1  0  0  0  0  0  0  0  0  0
   -0.6880   12.5970   -3.9150 O   0  0  0  0  0  0  0  0  0  0  0  0
   -4.2720   21.1150   -8.6700 O   0  0  0  0  0  0  0  0  0  0  0  0
   -3.6800   23.2490   -9.4010 C   0  0  1  0  0  0  0  0  0  0  0  0
   -1.7130   14.8560   -2.0910 N   0  0  0  0  0  0  0  0  0  0  0  0
   -4.6880   23.3310  -10.4400 O   0  0  0  0  0  0  0  0  0  0  0  0
   -1.1970   14.7720   -0.8120 C   0  0  0  0  0  0  0  0  0  0  0  0
   -4.2530   23.3260   -8.0330 C   0  0  2  0  0  0  0  0  0  0  0  0
   -5.0990   22.0610   -8.0200 C   0  0  2  0  0  0  0  0  0  0  0  0
   -3.0740   14.7880   -1.9840 C   0  0  0  0  0  0  0  0  0  0  0  0
   -5.0750   24.4390   -7.8100 O   0  0  0  0  0  0  0  0  0  0  0  0
   -5.4370   21.6020   -6.7210 O   0  0  0  0  0  0  0  0  0  0  0  0
   -4.7920   24.6370  -11.0200 C   0  0  0  0  0  0  0  0  0  0  0  0
   -2.3180   14.6710   -0.0030 C   0  0  0  0  0  0  0  0  0  0  0  0
    0.0850   14.7910   -0.4000 N   0  0  0  0  0  0  0  0  0  0  0  0
   -3.4740   14.6770   -0.7410 N   0  0  0  0  0  0  0  0  0  0  0  0
   -5.1860   24.4600   -6.5020 C   0  0  0  0  0  0  0  0  0  0  0  0
   -5.1850   24.7270  -12.4830 C   0  0  0  0  0  0  0  0  0  0  0  0
   -2.1090   14.5880    1.3690 C   0  0  0  0  0  0  0  0  0  0  0  0
    0.1670   14.7040    0.9430 C   0  0  0  0  0  0  0  0  0  0  0  0
   -4.4860   25.5180   -5.9150 C   0  0  0  0  0  0  0  0  0  0  0  0
   -5.7690   23.6030   -5.9260 O   0  0  0  0  0  0  0  0  0  0  0  0
   -3.1500   14.4950    2.2850 N   0  0  0  0  0  0  0  0  0  0  0  0
   -5.1010   26.1760  -12.9950 C   0  0  0  0  0  0  0  0  0  0  0  0
   -0.8450   14.6050    1.8320 N   0  0  0  0  0  0  0  0  0  0  0  0
   -3.7520   26.8820  -12.7420 C   0  0  0  0  0  0  0  0  0  0  0  0
   -3.9860   28.1960  -12.1610 O   0  0  0  0  0  0  0  0  0  0  0  0
   -5.1860   28.7940  -12.3930 C   0  0  0  0  0  0  0  0  0  0  0  0
   -6.2840   28.7110  -11.5240 C   0  0  0  0  0  0  0  0  0  0  0  0
   -5.2840   29.5150  -13.5900 C   0  0  0  0  0  0  0  0  0  0  0  0
   -4.2010   29.6510  -14.5060 N   0  0  0  0  0  0  0  0  0  0  0  0
   -6.5120   30.1280  -13.8880 C   0  0  0  0  0  0  0  0  0  0  0  0
   -7.4860   29.3290  -11.8370 C   0  0  0  0  0  0  0  0  0  0  0  0
   -3.1310   28.6950  -14.6410 C   0  0  0  0  0  0  0  0  0  0  0  0
   -3.9560   30.7860  -15.2880 C   0  0  0  0  0  0  0  0  0  0  0  0
   -7.6010   30.0330  -13.0210 C   0  0  0  0  0  0  0  0  0  0  0  0
   -4.6740   31.7360  -15.5230 O   0  0  0  0  0  0  0  0  0  0  0  0
   -2.5570   30.6480  -15.8900 C   0  0  1  0  0  0  0  0  0  0  0  0
   -2.3430   29.1410  -15.8610 C   0  0  0  0  0  0  0  0  0  0  0  0
   -2.5570   31.2200  -17.2470 N   0  0  0  0  0  0  0  0  0  0  0  0
   -1.3210   31.9100  -17.5720 C   0  0  0  0  0  0  0  0  0  0  0  0
  1  2  1  0
  2  3  1  0
  1  4  2  0
  1  5  1  1
  1  6  1  0
  6  7  1  0
  7  8  1  0
  7  9  2  0
  7 10  1  1
 11  3  1  6
  8 12  1  0
 11 13  1  0
 11 14  1  0
 14 15  1  1
 14 16  1  0
 13 17  1  0
 16 17  1  0
 18 12  1  1
 16 19  1  1
 18 20  1  0
 18 21  1  0
 17 22  1  1
 21 23  1  6
 22 24  1  0
 21 25  1  0
 20 26  1  0
 25 26  1  0
 22 27  1  0
 25 28  1  6
 26 29  1  1
 23 30  1  0
 24 31  2  0
 24 32  1  0
 27 33  2  0
 31 33  1  0
 28 34  1  0
 30 35  1  0
 31 36  1  0
 32 37  2  0
 34 38  1  0
 34 39  2  0
 36 40  1  0
 35 41  1  0
 36 42  2  0
 37 42  1  0
 41 43  1  0
 43 44  1  0
 44 45  1  0
 45 46  2  0
 45 47  1  0
 47 48  1  0
 47 49  2  0
 46 50  1  0
 48 51  1  0
 48 52  1  0
 49 53  1  0
 50 53  2  0
 52 54  2  0
 52 55  1  0
 51 56  1  0
 55 56  1  0
 55 57  1  6
 57 58  1  0
M  END
>  <%Rank>  (8) 
6.930693

>  <N_hits>  (8) 
2

>  <submitter_name>  (8) 
nan

>  <original SMILES>  (8) 
nan

>  <∆G_unbound>  (8) 
3.537953

>  <∆G_bound>  (8) 
-18.441239

>  <regarded>  (8) 
mArh-5cb5_F_1_F,mArh-x0417_0_B

>  <ref_pdb>  (8) 
nan

>  <smiles>  (8) 
CNC1CCN(c2ccccc2OCCCCOC2C(CO[P@@](=O)(O)O[P@](=O)(O)OCC3OC(n4cnc5c(N)ncnc54)C(O)C3O)OC(O)C2OC(C)=O)C1=O

>  <submitter_email>  (8) 
nan

>  <disregarded>  (8) 


>  <LE>  (8) 
-0.378952

>  <submitter_institution>  (8) 
nan

>  <ref_mols>  (8) 
mArh-5cb5_F_1_F,mArh-x0417_0_B

>  <N_constrained_atoms>  (8) 
54.0

>  <ref_url>  (8) 
nan

>  <method>  (8) 
nan

>  <comRMSD>  (8) 
0.577539

>  <N_unconstrained_atoms>  (8) 
4.0

>  <∆∆G>  (8) 
-21.979192

>  <runtime>  (8) 
51.427437

>  <generation_date>  (8) 
nan

$$$$
mArh-x0766_1_B-mArh-5dus_0_A
     RDKit          3D

 51 56  0  0  0  0  0  0  0  0999 V2000
   -6.6220   26.5200  -13.3640 C   0  0  0  0  0  0  0  0  0  0  0  0
   -5.5700   26.1370  -14.1050 O   0  0  0  0  0  0  0  0  0  0  0  0
   -7.7410   26.4870  -13.8530 O   0  0  0  0  0  0  0  0  0  0  0  0
   -6.2170   26.9660  -11.9600 C   0  0  2  0  0  0  0  0  0  0  0  0
   -7.0630   26.4460  -10.8040 C   0  0  2  0  0  0  0  0  0  0  0  0
   -6.5530   28.4530  -11.8240 C   0  0  2  0  0  0  0  0  0  0  0  0
   -6.9780   24.9280  -10.4290 C   0  0  0  0  0  0  0  0  0  0  0  0
   -8.4370   27.0340  -11.2040 C   0  0  0  0  0  0  0  0  0  0  0  0
   -8.0920   28.4380  -11.7470 C   0  0  0  0  0  0  0  0  0  0  0  0
   -5.8670   29.2240  -12.9180 C   0  0  0  0  0  0  0  0  0  0  0  0
   -5.5420   24.3370  -10.2610 C   0  0  0  0  0  0  0  0  0  0  0  0
   -4.4870   29.2840  -13.0040 C   0  0  0  0  0  0  0  0  0  0  0  0
   -6.4730   29.9690  -13.9870 C   0  0  0  0  0  0  0  0  0  0  0  0
   -5.4310   23.4980   -9.0740 O   0  0  0  0  0  0  0  0  0  0  0  0
   -5.5410   30.5480  -14.8200 C   0  0  0  0  0  0  0  0  0  0  0  0
   -3.9390   30.2070  -14.3310 S   0  0  0  0  0  0  0  0  0  0  0  0
   -4.1750   23.4490   -8.2940 C   0  0  1  0  0  0  0  0  0  0  0  0
   -4.5760   23.3670   -6.8300 C   0  0  1  0  0  0  0  0  0  0  0  0
   -3.5350   22.0360   -8.4140 C   0  0  1  0  0  0  0  0  0  0  0  0
   -5.3830   24.3980   -6.2960 O   0  0  0  0  0  0  0  0  0  0  0  0
   -2.1160   21.7940   -7.8470 C   0  0  0  0  0  0  0  0  0  0  0  0
   -5.3140   22.0550   -6.9310 C   0  0  1  0  0  0  0  0  0  0  0  0
   -4.3860   21.2210   -7.5890 O   0  0  0  0  0  0  0  0  0  0  0  0
   -5.6360   21.5590   -5.6460 O   0  0  0  0  0  0  0  0  0  0  0  0
   -1.7340   20.4210   -8.0940 O   0  0  0  0  0  0  0  0  0  0  0  0
   -0.2860   19.8610   -7.6560 P   0  0  2  0  0  0  0  0  0  0  0  0
    0.8180   20.8530   -7.6830 O   0  0  0  0  0  0  0  0  0  0  0  0
   -0.0110   18.6750   -8.7100 O   0  0  0  0  0  0  0  0  0  0  0  0
   -0.4140   19.0170   -6.3320 O   0  0  0  0  0  0  0  0  0  0  0  0
   -1.5840   18.1150   -5.8090 P   0  0  2  0  0  0  0  0  0  0  0  0
   -0.9740   16.8380   -5.0450 O   0  0  0  0  0  0  0  0  0  0  0  0
   -2.6540   17.7630   -6.7850 O   0  0  0  0  0  0  0  0  0  0  0  0
   -2.1590   19.0380   -4.6360 O   0  0  0  0  0  0  0  0  0  0  0  0
    0.4430   16.7440   -4.8630 C   0  0  0  0  0  0  0  0  0  0  0  0
    0.8410   15.3630   -4.2850 C   0  0  1  0  0  0  0  0  0  0  0  0
    0.3970   15.2100   -2.9180 O   0  0  0  0  0  0  0  0  0  0  0  0
    0.1460   14.2020   -5.0280 C   0  0  1  0  0  0  0  0  0  0  0  0
    0.9500   13.0320   -5.1020 O   0  0  0  0  0  0  0  0  0  0  0  0
   -1.1530   13.9140   -4.2380 C   0  0  2  0  0  0  0  0  0  0  0  0
   -1.0050   14.9020   -3.0860 C   0  0  1  0  0  0  0  0  0  0  0  0
   -1.1930   12.5390   -3.8780 O   0  0  0  0  0  0  0  0  0  0  0  0
   -1.7560   14.9070   -1.8430 N   0  0  0  0  0  0  0  0  0  0  0  0
   -1.2450   14.8360   -0.5520 C   0  0  0  0  0  0  0  0  0  0  0  0
   -3.1140   15.0210   -1.7290 C   0  0  0  0  0  0  0  0  0  0  0  0
   -2.3620   14.9440    0.2660 C   0  0  0  0  0  0  0  0  0  0  0  0
    0.0340   14.7100   -0.1420 N   0  0  0  0  0  0  0  0  0  0  0  0
   -3.5120   15.0440   -0.4770 N   0  0  0  0  0  0  0  0  0  0  0  0
   -2.1490   14.9450    1.6530 C   0  0  0  0  0  0  0  0  0  0  0  0
    0.1120   14.7120    1.2140 C   0  0  0  0  0  0  0  0  0  0  0  0
   -3.1830   15.0720    2.5710 N   0  0  0  0  0  0  0  0  0  0  0  0
   -0.8880   14.8250    2.1160 N   0  0  0  0  0  0  0  0  0  0  0  0
  1  2  1  0
  1  3  2  0
  4  1  1  6
  4  5  1  0
  4  6  1  0
  5  7  1  6
  5  8  1  0
  6  9  1  0
  8  9  1  0
  6 10  1  6
  7 11  1  0
 10 12  2  0
 10 13  1  0
 11 14  1  0
 13 15  2  0
 12 16  1  0
 15 16  1  0
 17 14  1  6
 17 18  1  0
 17 19  1  0
 18 20  1  6
 19 21  1  1
 18 22  1  0
 19 23  1  0
 22 23  1  0
 22 24  1  1
 21 25  1  0
 25 26  1  0
 26 27  2  0
 26 28  1  6
 26 29  1  0
 29 30  1  0
 30 31  1  0
 30 32  2  0
 30 33  1  1
 31 34  1  0
 35 34  1  6
 35 36  1  0
 35 37  1  0
 37 38  1  1
 37 39  1  0
 36 40  1  0
 39 40  1  0
 39 41  1  1
 40 42  1  1
 42 43  1  0
 42 44  1  0
 43 45  2  0
 43 46  1  0
 44 47  2  0
 45 47  1  0
 45 48  1  0
 46 49  2  0
 48 50  1  0
 48 51  2  0
 49 51  1  0
M  END
>  <%Rank>  (9) 
7.920792

>  <N_hits>  (9) 
2

>  <submitter_name>  (9) 
nan

>  <original SMILES>  (9) 
nan

>  <∆G_unbound>  (9) 
8.932503

>  <∆G_bound>  (9) 
-17.023707

>  <regarded>  (9) 
mArh-x0766_1_B,mArh-5dus_0_A

>  <ref_pdb>  (9) 
nan

>  <smiles>  (9) 
Nc1ncnc2c1ncn2C1OC(CO[P@@](=O)(O)O[P@@](=O)(O)OCC2OC(O)C(O)C2OCCC2CCC(c3ccsc3)C2C(=O)O)C(O)C1O

>  <submitter_email>  (9) 
nan

>  <disregarded>  (9) 


>  <LE>  (9) 
-0.508945

>  <submitter_institution>  (9) 
nan

>  <ref_mols>  (9) 
mArh-x0766_1_B,mArh-5dus_0_A

>  <N_constrained_atoms>  (9) 
49.0

>  <ref_url>  (9) 
nan

>  <method>  (9) 
nan

>  <comRMSD>  (9) 
0.630359

>  <N_unconstrained_atoms>  (9) 
2.0

>  <∆∆G>  (9) 
-25.95621

>  <runtime>  (9) 
39.293741

>  <generation_date>  (9) 
nan

$$$$
mArh-5cb5_Q_0_Q-mArh-x0436_0_B
     RDKit          3D

 53 57  0  0  0  0  0  0  0  0999 V2000
   -1.6350   18.3370   -6.2230 P   0  0  1  0  0  0  0  0  0  0  0  0
   -0.2540   17.5840   -6.4900 O   0  0  0  0  0  0  0  0  0  0  0  0
    0.5680   17.1470   -5.4240 C   0  0  0  0  0  0  0  0  0  0  0  0
   -2.8310   17.7210   -6.8430 O   0  0  0  0  0  0  0  0  0  0  0  0
   -1.7490   18.4540   -4.6320 O   0  0  0  0  0  0  0  0  0  0  0  0
   -1.2890   19.8060   -6.6120 O   0  0  0  0  0  0  0  0  0  0  0  0
   -0.5120   20.1660   -7.9240 P   0  0  1  0  0  0  0  0  0  0  0  0
    0.6300   21.1100   -7.8160 O   0  0  0  0  0  0  0  0  0  0  0  0
   -0.0170   18.7450   -8.5070 O   0  0  0  0  0  0  0  0  0  0  0  0
   -1.6750   20.4930   -8.9470 O   0  0  0  0  0  0  0  0  0  0  0  0
   -0.1340   15.9640   -4.8130 C   0  0  2  0  0  0  0  0  0  0  0  0
   -2.2420   21.7780   -9.0750 C   0  0  0  0  0  0  0  0  0  0  0  0
    0.0470   15.9170   -3.4000 O   0  0  0  0  0  0  0  0  0  0  0  0
    0.2670   14.5650   -5.2440 C   0  0  1  0  0  0  0  0  0  0  0  0
    1.5940   14.1760   -4.8600 O   0  0  0  0  0  0  0  0  0  0  0  0
   -0.7250   13.8630   -4.3410 C   0  0  2  0  0  0  0  0  0  0  0  0
   -0.4220   14.5940   -3.0280 C   0  0  2  0  0  0  0  0  0  0  0  0
   -3.3600   22.1500   -8.1690 C   0  0  1  0  0  0  0  0  0  0  0  0
   -0.4680   12.4610   -4.3070 O   0  0  0  0  0  0  0  0  0  0  0  0
   -3.9300   23.5660   -8.2890 C   0  0  1  0  0  0  0  0  0  0  0  0
   -4.5190   21.3560   -8.3350 O   0  0  0  0  0  0  0  0  0  0  0  0
   -1.5020   14.7740   -2.0930 N   0  0  0  0  0  0  0  0  0  0  0  0
   -4.9040   23.8450   -9.3700 O   0  0  0  0  0  0  0  0  0  0  0  0
   -5.4010   21.9640   -7.3930 C   0  0  2  0  0  0  0  0  0  0  0  0
   -4.7840   23.3320   -7.0550 C   0  0  2  0  0  0  0  0  0  0  0  0
   -1.3470   14.7540   -0.7580 C   0  0  0  0  0  0  0  0  0  0  0  0
   -2.8350   14.9980   -2.3610 C   0  0  0  0  0  0  0  0  0  0  0  0
   -5.4540   21.2120   -6.1860 O   0  0  0  0  0  0  0  0  0  0  0  0
   -5.7820   24.2890   -6.7650 O   0  0  0  0  0  0  0  0  0  0  0  0
   -4.5230   24.2290  -10.7210 C   0  0  0  0  0  0  0  0  0  0  0  0
   -2.6120   14.9780   -0.2470 C   0  0  0  0  0  0  0  0  0  0  0  0
   -0.2100   14.5640   -0.0960 N   0  0  0  0  0  0  0  0  0  0  0  0
   -3.5370   15.1300   -1.2530 N   0  0  0  0  0  0  0  0  0  0  0  0
   -5.5560   25.1630  -11.4240 C   0  0  0  0  0  0  0  0  0  0  0  0
   -2.7100   15.0170    1.1380 C   0  0  0  0  0  0  0  0  0  0  0  0
   -0.4290   14.6040    1.2230 C   0  0  0  0  0  0  0  0  0  0  0  0
   -3.9120   15.2660    1.7730 N   0  0  0  0  0  0  0  0  0  0  0  0
   -5.1210   25.8360  -12.7570 C   0  0  0  0  0  0  0  0  0  0  0  0
   -1.5930   14.8090    1.8660 N   0  0  0  0  0  0  0  0  0  0  0  0
   -4.0780   26.9880  -12.6640 C   0  0  0  0  0  0  0  0  0  0  0  0
   -4.5600   28.4200  -12.2270 C   0  0  0  0  0  0  0  0  0  0  0  0
   -5.9860   28.7000  -12.5060 C   0  0  0  0  0  0  0  0  0  0  0  0
   -6.8880   29.0430  -11.4890 C   0  0  0  0  0  0  0  0  0  0  0  0
   -6.4270   28.6120  -13.8160 C   0  0  0  0  0  0  0  0  0  0  0  0
   -8.2220   29.2870  -11.8100 C   0  0  0  0  0  0  0  0  0  0  0  0
   -7.7530   28.8550  -14.1310 C   0  0  0  0  0  0  0  0  0  0  0  0
   -8.6560   29.1910  -13.1340 C   0  0  0  0  0  0  0  0  0  0  0  0
   -9.9780   29.4470  -13.3290 O   0  0  0  0  0  0  0  0  0  0  0  0
  -10.3210   30.2640  -14.4370 C   0  0  2  0  0  0  0  0  0  0  0  0
  -11.7970   30.6060  -14.2610 C   0  0  0  0  0  0  0  0  0  0  0  0
  -10.1080   29.6030  -15.8150 C   0  0  0  0  0  0  0  0  0  0  0  0
  -10.3590   28.2550  -15.8720 N   0  0  0  0  0  0  0  0  0  0  0  0
   -9.7490   30.1890  -16.8290 O   0  0  0  0  0  0  0  0  0  0  0  0
  1  2  1  0
  2  3  1  0
  1  4  2  0
  1  5  1  1
  1  6  1  0
  6  7  1  0
  7  8  2  0
  7  9  1  6
  7 10  1  0
 11  3  1  6
 10 12  1  0
 11 13  1  0
 11 14  1  0
 14 15  1  1
 14 16  1  0
 13 17  1  0
 16 17  1  0
 18 12  1  6
 16 19  1  1
 18 20  1  0
 18 21  1  0
 17 22  1  1
 20 23  1  6
 21 24  1  0
 20 25  1  0
 24 25  1  0
 22 26  1  0
 22 27  1  0
 24 28  1  1
 25 29  1  6
 23 30  1  0
 26 31  2  0
 26 32  1  0
 27 33  2  0
 31 33  1  0
 30 34  1  0
 31 35  1  0
 32 36  2  0
 35 37  1  0
 34 38  1  0
 35 39  2  0
 36 39  1  0
 38 40  1  0
 40 41  1  0
 41 42  1  0
 42 43  2  0
 42 44  1  0
 43 45  1  0
 44 46  2  0
 45 47  2  0
 46 47  1  0
 47 48  1  0
 48 49  1  0
 49 50  1  1
 49 51  1  0
 51 52  1  0
 51 53  2  0
M  END
>  <%Rank>  (10) 
8.910891

>  <N_hits>  (10) 
2

>  <submitter_name>  (10) 
nan

>  <original SMILES>  (10) 
nan

>  <∆G_unbound>  (10) 
2.717178

>  <∆G_bound>  (10) 
-18.961881

>  <regarded>  (10) 
mArh-5cb5_Q_0_Q,mArh-x0436_0_B

>  <ref_pdb>  (10) 
nan

>  <smiles>  (10) 
C[C@@H](Oc1ccc(CCCCCOC2C(CO[P@](=O)(O)O[P@](=O)(O)OCC3OC(n4cnc5c(N)ncnc54)C(O)C3O)OC(O)C2O)cc1)C(N)=O

>  <submitter_email>  (10) 
nan

>  <disregarded>  (10) 


>  <LE>  (10) 
-0.409039

>  <submitter_institution>  (10) 
nan

>  <ref_mols>  (10) 
mArh-5cb5_Q_0_Q,mArh-x0436_0_B

>  <N_constrained_atoms>  (10) 
49.0

>  <ref_url>  (10) 
nan

>  <method>  (10) 
nan

>  <comRMSD>  (10) 
0.572327

>  <N_unconstrained_atoms>  (10) 
4.0

>  <∆∆G>  (10) 
-21.679059

>  <runtime>  (10) 
72.293155

>  <generation_date>  (10) 
nan

$$$$
mArh-5cb5_R_0_R-mArh-5cb5_K_0_K
     RDKit          3D

 36 39  0  0  0  0  0  0  0  0999 V2000
   -1.3500   18.2040   -6.1630 P   0  0  1  0  0  0  0  0  0  0  0  0
    0.1130   17.5530   -6.3470 O   0  0  0  0  0  0  0  0  0  0  0  0
    0.7840   16.8520   -5.3030 C   0  0  0  0  0  0  0  0  0  0  0  0
   -2.4920   17.5170   -6.8390 O   0  0  0  0  0  0  0  0  0  0  0  0
   -1.5660   18.3370   -4.5880 O   0  0  0  0  0  0  0  0  0  0  0  0
   -1.1400   19.6930   -6.5900 O   0  0  0  0  0  0  0  0  0  0  0  0
   -0.3610   20.0370   -7.9230 P   0  0  1  0  0  0  0  0  0  0  0  0
    0.7940   20.9640   -7.8060 O   0  0  0  0  0  0  0  0  0  0  0  0
   -0.0280   18.6640   -8.6830 O   0  0  0  0  0  0  0  0  0  0  0  0
   -1.5670   20.4780   -8.8430 O   0  0  0  0  0  0  0  0  0  0  0  0
   -0.0830   15.7170   -4.7900 C   0  0  2  0  0  0  0  0  0  0  0  0
   -2.0510   21.7860   -8.8350 C   0  0  0  0  0  0  0  0  0  0  0  0
   -0.1700   15.6700   -3.3820 O   0  0  0  0  0  0  0  0  0  0  0  0
    0.1330   14.2330   -5.1440 C   0  0  1  0  0  0  0  0  0  0  0  0
    1.4180   13.7540   -4.7290 O   0  0  0  0  0  0  0  0  0  0  0  0
   -0.9390   13.5770   -4.2420 C   0  0  2  0  0  0  0  0  0  0  0  0
   -1.2960   14.8040   -3.3940 C   0  0  1  0  0  0  0  0  0  0  0  0
   -3.1020   22.0730   -7.8320 C   0  0  1  0  0  0  0  0  0  0  0  0
   -0.4460   12.4590   -3.5340 O   0  0  0  0  0  0  0  0  0  0  0  0
   -3.7470   23.4290   -8.0390 C   0  0  1  0  0  0  0  0  0  0  0  0
   -4.2460   21.2380   -7.9500 O   0  0  0  0  0  0  0  0  0  0  0  0
   -2.0280   14.8720   -2.1670 N   0  0  0  0  0  0  0  0  0  0  0  0
   -4.4450   23.5740   -9.2750 O   0  0  0  0  0  0  0  0  0  0  0  0
   -5.2200   21.8890   -7.1230 C   0  0  2  0  0  0  0  0  0  0  0  0
   -4.6590   23.2870   -6.8490 C   0  0  2  0  0  0  0  0  0  0  0  0
   -1.6310   14.8320   -0.8550 C   0  0  0  0  0  0  0  0  0  0  0  0
   -3.3830   15.0460   -2.1930 C   0  0  0  0  0  0  0  0  0  0  0  0
   -5.3520   21.2220   -5.8820 O   0  0  0  0  0  0  0  0  0  0  0  0
   -5.7140   24.2540   -6.8590 O   0  0  0  0  0  0  0  0  0  0  0  0
   -2.8210   15.0260   -0.1660 C   0  0  0  0  0  0  0  0  0  0  0  0
   -0.4080   14.6750   -0.3150 N   0  0  0  0  0  0  0  0  0  0  0  0
   -3.8990   15.1440   -1.0050 N   0  0  0  0  0  0  0  0  0  0  0  0
   -2.7530   15.0860    1.2090 C   0  0  0  0  0  0  0  0  0  0  0  0
   -0.4800   14.7290    1.0300 C   0  0  0  0  0  0  0  0  0  0  0  0
   -3.8850   15.3300    1.9520 N   0  0  0  0  0  0  0  0  0  0  0  0
   -1.5620   14.9190    1.8140 N   0  0  0  0  0  0  0  0  0  0  0  0
  1  2  1  0
  2  3  1  0
  1  4  2  0
  1  5  1  1
  1  6  1  0
  6  7  1  0
  7  8  2  0
  7  9  1  6
  7 10  1  0
 11  3  1  1
 10 12  1  0
 11 13  1  0
 11 14  1  0
 14 15  1  1
 14 16  1  0
 13 17  1  0
 16 17  1  0
 18 12  1  6
 16 19  1  1
 18 20  1  0
 18 21  1  0
 17 22  1  1
 20 23  1  6
 21 24  1  0
 20 25  1  0
 24 25  1  0
 22 26  1  0
 22 27  1  0
 24 28  1  1
 25 29  1  6
 26 30  2  0
 26 31  1  0
 27 32  2  0
 30 32  1  0
 30 33  1  0
 31 34  2  0
 33 35  1  0
 33 36  2  0
 34 36  1  0
M  END
>  <%Rank>  (11) 
9.90099

>  <N_hits>  (11) 
2

>  <submitter_name>  (11) 
nan

>  <original SMILES>  (11) 
nan

>  <∆G_unbound>  (11) 
4.299768

>  <∆G_bound>  (11) 
-15.673064

>  <regarded>  (11) 
mArh-5cb5_R_0_R,mArh-5cb5_K_0_K

>  <ref_pdb>  (11) 
nan

>  <smiles>  (11) 
Nc1ncnc2c1ncn2C1OC(CO[P@@](=O)(O)O[P@@](=O)(O)OCC2OC(O)C(O)C2O)C(O)C1O

>  <submitter_email>  (11) 
nan

>  <disregarded>  (11) 


>  <LE>  (11) 
-0.554801

>  <submitter_institution>  (11) 
nan

>  <ref_mols>  (11) 
mArh-5cb5_R_0_R,mArh-5cb5_K_0_K

>  <N_constrained_atoms>  (11) 
36.0

>  <ref_url>  (11) 
nan

>  <method>  (11) 
nan

>  <comRMSD>  (11) 
0.609456

>  <N_unconstrained_atoms>  (11) 
0.0

>  <∆∆G>  (11) 
-19.972832

>  <runtime>  (11) 
54.079707

>  <generation_date>  (11) 
nan

$$$$
mArh-mac-257_0_A-mArh-x0423_0_B
     RDKit          3D

 31 34  0  0  0  0  0  0  0  0999 V2000
   -0.7790   24.8610   15.1180 C   0  0  0  0  0  0  0  0  0  0  0  0
    0.2990   25.8930   15.2230 C   0  0  0  0  0  0  0  0  0  0  0  0
   -0.0700   27.2600   15.5730 C   0  0  0  0  0  0  0  0  0  0  0  0
    1.7320   25.6060   14.9940 C   0  0  0  0  0  0  0  0  0  0  0  0
    2.5770   26.6780   15.0520 C   0  0  1  0  0  0  0  0  0  0  0  0
    0.9320   28.3740   15.9460 C   0  0  0  0  0  0  0  0  0  0  0  0
    2.2590   27.9170   15.8670 C   0  0  0  0  0  0  0  0  0  0  0  0
    4.0400   26.6640   15.2280 C   0  0  0  0  0  0  0  0  0  0  0  0
    3.2950   28.5320   16.3870 N   0  0  0  0  0  0  0  0  0  0  0  0
    4.3920   27.7810   15.9650 C   0  0  0  0  0  0  0  0  0  0  0  0
    5.7960   28.2030   16.2710 C   0  0  0  0  0  0  0  0  0  0  0  0
    6.8490   27.9590   15.5510 N   0  0  0  0  0  0  0  0  0  0  0  0
    5.8390   28.9140   17.4170 O   0  0  0  0  0  0  0  0  0  0  0  0
    8.1520   28.4790   16.0070 C   0  0  0  0  0  0  0  0  0  0  0  0
    9.2800   27.4310   15.9150 C   0  0  0  0  0  0  0  0  0  0  0  0
   10.1620   27.5530   14.6540 C   0  0  0  0  0  0  0  0  0  0  0  0
   11.6020   27.9220   14.8730 C   0  0  0  0  0  0  0  0  0  0  0  0
   12.5170   26.8370   15.4750 C   0  0  0  0  0  0  0  0  0  0  0  0
   13.6790   26.4590   14.6620 N   0  0  0  0  0  0  0  0  0  0  0  0
   14.1890   25.1000   14.9400 C   0  0  1  0  0  0  0  0  0  0  0  0
   13.4870   24.0710   14.3250 C   0  0  0  0  0  0  0  0  0  0  0  0
   15.6770   25.0310   14.5260 C   0  0  0  0  0  0  0  0  0  0  0  0
   14.1160   23.0740   13.6820 N   0  0  0  0  0  0  0  0  0  0  0  0
   15.8980   24.6520   13.0550 C   0  0  0  0  0  0  0  0  0  0  0  0
   14.8470   23.6650   12.5510 C   0  0  0  0  0  0  0  0  0  0  0  0
   13.4680   21.8600   13.4590 C   0  0  0  0  0  0  0  0  0  0  0  0
   12.3960   21.4650   14.2350 C   0  0  0  0  0  0  0  0  0  0  0  0
   13.9010   21.0430   12.4710 N   0  0  0  0  0  0  0  0  0  0  0  0
   13.2990   19.8340   12.2270 N   0  0  0  0  0  0  0  0  0  0  0  0
   11.7830   20.2470   14.0010 C   0  0  0  0  0  0  0  0  0  0  0  0
   12.2610   19.4620   12.9900 C   0  0  0  0  0  0  0  0  0  0  0  0
  1  2  1  0
  2  3  1  0
  2  4  2  0
  5  4  1  1
  3  6  2  0
  5  7  1  0
  6  7  1  0
  5  8  1  0
  7  9  2  0
  8 10  2  0
  9 10  1  0
 10 11  1  0
 11 12  2  3
 11 13  1  0
 12 14  1  0
 14 15  1  0
 15 16  1  0
 16 17  1  0
 17 18  1  0
 18 19  1  0
 20 19  1  6
 20 21  1  0
 20 22  1  0
 21 23  1  0
 22 24  1  0
 23 25  1  0
 24 25  1  0
 23 26  1  0
 26 27  2  0
 26 28  1  0
 28 29  2  0
 27 30  1  0
 29 31  1  0
 30 31  2  0
M  END
>  <%Rank>  (12) 
10.891089

>  <N_hits>  (12) 
2

>  <submitter_name>  (12) 
nan

>  <original SMILES>  (12) 
nan

>  <∆G_unbound>  (12) 
0.166484

>  <∆G_bound>  (12) 
-11.200565

>  <regarded>  (12) 
mArh-mac-257_0_A,mArh-x0423_0_B

>  <ref_pdb>  (12) 
nan

>  <smiles>  (12) 
CC1=CC2C=C(C(O)=NCCCCCNC3CCCN(c4cccnn4)C3)N=C2C=C1

>  <submitter_email>  (12) 
nan

>  <disregarded>  (12) 


>  <LE>  (12) 
-0.366679

>  <submitter_institution>  (12) 
nan

>  <ref_mols>  (12) 
mArh-mac-257_0_A,mArh-x0423_0_B

>  <N_constrained_atoms>  (12) 
27.0

>  <ref_url>  (12) 
nan

>  <method>  (12) 
nan

>  <comRMSD>  (12) 
0.34388

>  <N_unconstrained_atoms>  (12) 
4.0

>  <∆∆G>  (12) 
-11.367049

>  <runtime>  (12) 
30.951026

>  <generation_date>  (12) 
nan

$$$$
mArh-3ew5_C_0_C-mArh-x0969_0_A
     RDKit          3D

 25 26  0  0  0  0  0  0  0  0999 V2000
   -0.5730   19.5970   -7.7840 P   0  0  2  0  0  0  0  0  0  0  0  0
   -1.6340   20.6640   -8.3360 O   0  0  0  0  0  0  0  0  0  0  0  0
   -2.2020   21.6110   -7.4200 C   0  0  0  0  0  0  0  0  0  0  0  0
    0.6080   20.2390   -7.1840 O   0  0  0  0  0  0  0  0  0  0  0  0
    0.0020   18.8670   -9.0540 O   0  0  0  0  0  0  0  0  0  0  0  0
   -1.2180   18.5240   -6.9820 O   0  0  0  0  0  0  0  0  0  0  0  0
   -0.4530   18.0220   -5.9010 C   0  0  0  0  0  0  0  0  0  0  0  0
   -3.7010   21.8630   -7.6820 C   0  0  2  0  0  0  0  0  0  0  0  0
   -1.3000   17.7180   -4.8380 C   0  0  0  0  0  0  0  0  0  0  0  0
   -4.0240   23.1980   -8.3510 C   0  0  0  0  0  0  0  0  0  0  0  0
   -4.4310   21.7800   -6.4440 O   0  0  0  0  0  0  0  0  0  0  0  0
   -0.8850   16.6960   -3.9790 C   0  0  0  0  0  0  0  0  0  0  0  0
   -4.6740   23.0100   -9.6030 O   0  0  0  0  0  0  0  0  0  0  0  0
   -2.0260   15.8560   -3.4150 C   0  0  0  0  0  0  0  0  0  0  0  0
   -1.8280   15.4920   -1.9490 C   0  0  0  0  0  0  0  0  0  0  0  0
   -3.1050   15.3130   -1.1650 C   0  0  0  0  0  0  0  0  0  0  0  0
   -4.3420   15.0690   -1.7240 C   0  0  0  0  0  0  0  0  0  0  0  0
   -3.0450   15.4020    0.3680 C   0  0  0  0  0  0  0  0  0  0  0  0
   -5.5130   14.8890   -0.7560 C   0  0  0  0  0  0  0  0  0  0  0  0
   -4.1010   15.2420    1.1600 C   0  0  0  0  0  0  0  0  0  0  0  0
   -6.7820   14.6380   -0.9920 N   0  0  0  0  0  0  0  0  0  0  0  0
   -5.3300   14.9780    0.6030 N   0  0  0  0  0  0  0  0  0  0  0  0
   -6.5120   14.7680    1.1530 C   0  0  0  0  0  0  0  0  0  0  0  0
   -7.4130   14.5600    0.2230 N   0  0  0  0  0  0  0  0  0  0  0  0
   -6.7310   14.7790    2.4880 N   0  0  0  0  0  0  0  0  0  0  0  0
  1  2  1  0
  2  3  1  0
  1  4  2  0
  1  5  1  6
  1  6  1  0
  6  7  1  0
  3  8  1  0
  7  9  1  0
  8 10  1  0
  8 11  1  1
  9 12  1  0
 10 13  1  0
 12 14  1  0
 14 15  1  0
 15 16  1  0
 16 17  2  0
 16 18  1  0
 17 19  1  0
 18 20  2  0
 19 21  2  0
 19 22  1  0
 20 22  1  0
 22 23  1  0
 21 24  1  0
 23 24  2  0
 23 25  1  0
M  END
>  <%Rank>  (13) 
11.881188

>  <N_hits>  (13) 
2

>  <submitter_name>  (13) 
nan

>  <original SMILES>  (13) 
nan

>  <∆G_unbound>  (13) 
2.152611

>  <∆G_bound>  (13) 
-15.024848

>  <regarded>  (13) 
mArh-3ew5_C_0_C,mArh-x0969_0_A

>  <ref_pdb>  (13) 
nan

>  <smiles>  (13) 
Nc1nnc2cc(CCCCCOP(=O)(O)OC[C@@H](O)CO)ccn12

>  <submitter_email>  (13) 
nan

>  <disregarded>  (13) 


>  <LE>  (13) 
-0.687098

>  <submitter_institution>  (13) 
nan

>  <ref_mols>  (13) 
mArh-3ew5_C_0_C,mArh-x0969_0_A

>  <N_constrained_atoms>  (13) 
20.0

>  <ref_url>  (13) 
nan

>  <method>  (13) 
nan

>  <comRMSD>  (13) 
0.348998

>  <N_unconstrained_atoms>  (13) 
5.0

>  <∆∆G>  (13) 
-17.177458

>  <runtime>  (13) 
25.354815

>  <generation_date>  (13) 
nan

$$$$
mArh-x0216_0_A-mArh-x0423_0_B
     RDKit          3D

 34 36  0  0  0  0  0  0  0  0999 V2000
   17.6750   28.7110    6.0960 N   0  0  0  0  0  0  0  0  0  0  0  0
   17.0510   29.9940    6.4470 C   0  0  0  0  0  0  0  0  0  0  0  0
   15.7310   29.7260    7.1530 C   0  0  0  0  0  0  0  0  0  0  0  0
   18.8600   28.1690    6.5300 C   0  0  0  0  0  0  0  0  0  0  0  0
   18.9680   27.7980    7.7630 N   0  0  0  0  0  0  0  0  0  0  0  0
   19.8480   28.0260    5.5860 N   0  0  0  0  0  0  0  0  0  0  0  0
   17.9710   30.8570    7.3020 C   0  0  0  0  0  0  0  0  0  0  0  0
   19.3750   27.9340    4.1940 C   0  0  0  0  0  0  0  0  0  0  0  0
   17.8740   27.9140    8.7160 C   0  0  0  0  0  0  0  0  0  0  0  0
   20.9660   27.1300    5.9690 C   0  0  2  0  0  0  0  0  0  0  0  0
   18.0580   26.8480    9.8170 C   0  0  0  0  0  0  0  0  0  0  0  0
   22.3280   27.8510    5.9500 C   0  0  0  0  0  0  0  0  0  0  0  0
   21.0960   25.8830    5.0590 C   0  0  0  0  0  0  0  0  0  0  0  0
   17.6050   25.4480    9.3700 C   0  0  0  0  0  0  0  0  0  0  0  0
   22.8180   27.8140    4.5170 C   0  0  0  0  0  0  0  0  0  0  0  0
   22.5430   26.1280    4.0440 S   0  0  0  0  0  0  0  0  0  0  0  0
   22.1930   26.0900    2.6420 O   0  0  0  0  0  0  0  0  0  0  0  0
   23.6330   25.3370    4.5850 O   0  0  0  0  0  0  0  0  0  0  0  0
   17.0560   24.5120   10.4740 C   0  0  0  0  0  0  0  0  0  0  0  0
   16.9510   25.0960   11.9040 C   0  0  0  0  0  0  0  0  0  0  0  0
   16.1270   24.2760   12.9440 C   0  0  2  0  0  0  0  0  0  0  0  0
   14.7810   23.7010   12.4620 C   0  0  0  0  0  0  0  0  0  0  0  0
   15.9730   24.9690   14.3310 C   0  0  0  0  0  0  0  0  0  0  0  0
   14.5200   25.1670   14.8820 C   0  0  1  0  0  0  0  0  0  0  0  0
   14.1640   23.0550   13.6010 N   0  0  0  0  0  0  0  0  0  0  0  0
   14.0640   26.5130   14.4840 N   0  0  0  0  0  0  0  0  0  0  0  0
   13.5270   24.0340   14.4780 C   0  0  0  0  0  0  0  0  0  0  0  0
   13.5140   21.8400   13.4020 C   0  0  0  0  0  0  0  0  0  0  0  0
   12.9690   26.9910   15.3240 C   0  0  0  0  0  0  0  0  0  0  0  0
   12.4270   21.4760   14.1910 C   0  0  0  0  0  0  0  0  0  0  0  0
   13.9340   20.9880   12.4440 N   0  0  0  0  0  0  0  0  0  0  0  0
   13.3190   19.7810   12.2340 N   0  0  0  0  0  0  0  0  0  0  0  0
   11.8030   20.2610   13.9890 C   0  0  0  0  0  0  0  0  0  0  0  0
   12.2720   19.4410   13.0060 C   0  0  0  0  0  0  0  0  0  0  0  0
  1  2  1  0
  2  3  1  0
  1  4  1  0
  4  5  2  3
  4  6  1  0
  2  7  1  0
  6  8  1  0
  5  9  1  0
 10  6  1  6
  9 11  1  0
 10 12  1  0
 10 13  1  0
 11 14  1  0
 12 15  1  0
 16 13  1  0
 15 16  1  0
 16 17  2  0
 16 18  2  0
 14 19  1  0
 19 20  1  0
 21 20  1  6
 21 22  1  0
 21 23  1  0
 23 24  1  0
 22 25  1  0
 24 26  1  6
 24 27  1  0
 25 27  1  0
 25 28  1  0
 26 29  1  0
 28 30  2  0
 28 31  1  0
 31 32  2  0
 30 33  1  0
 32 34  1  0
 33 34  2  0
M  END
>  <%Rank>  (14) 
12.871287

>  <N_hits>  (14) 
2

>  <submitter_name>  (14) 
nan

>  <original SMILES>  (14) 
nan

>  <∆G_unbound>  (14) 
0.865052

>  <∆G_bound>  (14) 
-9.007149

>  <regarded>  (14) 
mArh-x0216_0_A,mArh-x0423_0_B

>  <ref_pdb>  (14) 
nan

>  <smiles>  (14) 
CNC1CC(CCCCCN=C(NC(C)C)N(C)C2CCS(=O)(=O)C2)CN(c2cccnn2)C1

>  <submitter_email>  (14) 
nan

>  <disregarded>  (14) 


>  <LE>  (14) 
-0.290359

>  <submitter_institution>  (14) 
nan

>  <ref_mols>  (14) 
mArh-x0216_0_A,mArh-x0423_0_B

>  <N_constrained_atoms>  (14) 
29.0

>  <ref_url>  (14) 
nan

>  <method>  (14) 
nan

>  <comRMSD>  (14) 
0.333997

>  <N_unconstrained_atoms>  (14) 
5.0

>  <∆∆G>  (14) 
-9.872201

>  <runtime>  (14) 
39.824324

>  <generation_date>  (14) 
nan

$$$$
mArh-x0855_0_A-mArh-5cb5_K_0_K
     RDKit          3D

 44 48  0  0  0  0  0  0  0  0999 V2000
    2.1490   13.1150   -3.4210 O   0  0  0  0  0  0  0  0  0  0  0  0
    1.0950   12.2950   -3.4920 C   0  0  0  0  0  0  0  0  0  0  0  0
   -0.0870   12.7960   -4.2830 C   0  0  2  0  0  0  0  0  0  0  0  0
    1.1080   11.2300   -2.9060 O   0  0  0  0  0  0  0  0  0  0  0  0
   -0.7370   11.7290   -5.0160 N   0  0  0  0  0  0  0  0  0  0  0  0
   -0.1180   14.1760   -4.9970 C   0  0  2  0  0  0  0  0  0  0  0  0
   -0.2830   10.8940   -6.0120 C   0  0  0  0  0  0  0  0  0  0  0  0
   -2.0210   11.5190   -4.6470 N   0  0  0  0  0  0  0  0  0  0  0  0
    0.6610   15.3770   -4.3810 C   0  0  1  0  0  0  0  0  0  0  0  0
   -1.4870   14.6150   -4.5390 C   0  0  0  0  0  0  0  0  0  0  0  0
    0.5770   16.6850   -5.2000 C   0  0  0  0  0  0  0  0  0  0  0  0
   -1.3450   10.0780   -6.3050 C   0  0  0  0  0  0  0  0  0  0  0  0
   -2.4340   10.5210   -5.4060 C   0  0  0  0  0  0  0  0  0  0  0  0
   -0.0260   15.6150   -3.1260 O   0  0  0  0  0  0  0  0  0  0  0  0
   -1.0660   14.6250   -3.0890 C   0  0  1  0  0  0  0  0  0  0  0  0
   -1.4820    8.6940   -7.5390 Br  0  0  0  0  0  0  0  0  0  0  0  0
   -0.7180   16.7810   -5.7770 O   0  0  0  0  0  0  0  0  0  0  0  0
   -2.0370   14.8510   -2.0610 N   0  0  0  0  0  0  0  0  0  0  0  0
   -1.3810   18.1950   -6.1000 P   0  0  1  0  0  0  0  0  0  0  0  0
   -1.6870   14.8150   -0.7490 C   0  0  0  0  0  0  0  0  0  0  0  0
   -3.3740   15.1230   -2.1440 C   0  0  0  0  0  0  0  0  0  0  0  0
   -2.5770   18.1350   -7.0550 O   0  0  0  0  0  0  0  0  0  0  0  0
   -1.7790   18.7570   -4.6600 O   0  0  0  0  0  0  0  0  0  0  0  0
   -0.2180   19.1650   -6.4870 O   0  0  0  0  0  0  0  0  0  0  0  0
   -2.8530   15.0880   -0.0730 C   0  0  0  0  0  0  0  0  0  0  0  0
   -0.4670   14.5780   -0.2400 N   0  0  0  0  0  0  0  0  0  0  0  0
   -3.9050   15.2740   -0.9490 N   0  0  0  0  0  0  0  0  0  0  0  0
   -0.1830   19.9520   -7.8410 P   0  0  1  0  0  0  0  0  0  0  0  0
   -2.7600   15.1340    1.3110 C   0  0  0  0  0  0  0  0  0  0  0  0
   -0.5080   14.6310    1.0980 C   0  0  0  0  0  0  0  0  0  0  0  0
    0.9180   21.1120   -7.9010 O   0  0  0  0  0  0  0  0  0  0  0  0
    0.1010   18.7660   -8.8830 O   0  0  0  0  0  0  0  0  0  0  0  0
   -1.6740   20.3780   -8.2140 O   0  0  0  0  0  0  0  0  0  0  0  0
   -3.8450   15.4350    2.1040 N   0  0  0  0  0  0  0  0  0  0  0  0
   -1.5630   14.8860    1.8890 N   0  0  0  0  0  0  0  0  0  0  0  0
   -1.9900   21.7520   -8.0210 C   0  0  0  0  0  0  0  0  0  0  0  0
   -3.3090   22.1280   -8.6940 C   0  0  2  0  0  0  0  0  0  0  0  0
   -3.7610   23.5370   -8.3780 C   0  0  1  0  0  0  0  0  0  0  0  0
   -4.3630   21.2950   -8.2480 O   0  0  0  0  0  0  0  0  0  0  0  0
   -4.5360   24.0920   -9.4170 O   0  0  0  0  0  0  0  0  0  0  0  0
   -5.1670   21.9750   -7.2870 C   0  0  2  0  0  0  0  0  0  0  0  0
   -4.5550   23.3440   -7.0890 C   0  0  2  0  0  0  0  0  0  0  0  0
   -5.1860   21.2710   -6.0540 O   0  0  0  0  0  0  0  0  0  0  0  0
   -5.5620   24.3340   -6.8850 O   0  0  0  0  0  0  0  0  0  0  0  0
  1  2  1  0
  3  2  1  6
  2  4  2  0
  3  5  1  0
  3  6  1  0
  5  7  1  0
  5  8  1  0
  6  9  1  0
  6 10  1  1
  9 11  1  6
  7 12  2  0
  8 13  2  0
 12 13  1  0
  9 14  1  0
 10 15  1  0
 14 15  1  0
 12 16  1  0
 11 17  1  0
 15 18  1  1
 17 19  1  0
 18 20  1  0
 18 21  1  0
 19 22  2  0
 19 23  1  1
 19 24  1  0
 20 25  2  0
 20 26  1  0
 21 27  2  0
 25 27  1  0
 24 28  1  0
 25 29  1  0
 26 30  2  0
 28 31  2  0
 28 32  1  6
 28 33  1  0
 29 34  1  0
 29 35  2  0
 30 35  1  0
 33 36  1  0
 37 36  1  1
 37 38  1  0
 37 39  1  0
 38 40  1  6
 39 41  1  0
 38 42  1  0
 41 42  1  0
 41 43  1  1
 42 44  1  6
M  END
>  <%Rank>  (15) 
13.861386

>  <N_hits>  (15) 
2

>  <submitter_name>  (15) 
nan

>  <original SMILES>  (15) 
nan

>  <∆G_unbound>  (15) 
5.735571

>  <∆G_bound>  (15) 
-15.16674

>  <regarded>  (15) 
mArh-x0855_0_A,mArh-5cb5_K_0_K

>  <ref_pdb>  (15) 
nan

>  <smiles>  (15) 
Nc1ncnc2c1ncn2C1CC(C(C(=O)O)n2cc(Br)cn2)C(CO[P@@](=O)(O)O[P@@](=O)(O)OCC2OC(O)C(O)C2O)O1

>  <submitter_email>  (15) 
nan

>  <disregarded>  (15) 


>  <LE>  (15) 
-0.475053

>  <submitter_institution>  (15) 
nan

>  <ref_mols>  (15) 
mArh-x0855_0_A,mArh-5cb5_K_0_K

>  <N_constrained_atoms>  (15) 
44.0

>  <ref_url>  (15) 
nan

>  <method>  (15) 
nan

>  <comRMSD>  (15) 
0.669283

>  <N_unconstrained_atoms>  (15) 
0.0

>  <∆∆G>  (15) 
-20.902311

>  <runtime>  (15) 
29.317083

>  <generation_date>  (15) 
nan

$$$$
mArh-5cb5_A_0_A-mArh-6mea_B_0_B
     RDKit          3D

 36 39  0  0  0  0  0  0  0  0999 V2000
   -1.6970   18.3630   -6.1210 P   0  0  1  0  0  0  0  0  0  0  0  0
   -0.4260   17.4250   -6.3150 O   0  0  0  0  0  0  0  0  0  0  0  0
    0.3610   16.9600   -5.2290 C   0  0  0  0  0  0  0  0  0  0  0  0
   -2.8690   17.6260   -6.8620 O   0  0  0  0  0  0  0  0  0  0  0  0
   -1.7730   18.5390   -4.5450 O   0  0  0  0  0  0  0  0  0  0  0  0
   -1.2130   19.7220   -6.6900 O   0  0  0  0  0  0  0  0  0  0  0  0
   -0.2950   19.9810   -7.9290 P   0  0  1  0  0  0  0  0  0  0  0  0
    0.9700   20.7110   -7.6700 O   0  0  0  0  0  0  0  0  0  0  0  0
   -0.1070   18.6140   -8.7430 O   0  0  0  0  0  0  0  0  0  0  0  0
   -1.3250   20.7190   -8.8660 O   0  0  0  0  0  0  0  0  0  0  0  0
   -0.4580   15.8760   -4.5560 C   0  0  2  0  0  0  0  0  0  0  0  0
   -1.9810   21.7980   -8.2380 C   0  0  0  0  0  0  0  0  0  0  0  0
   -0.1540   15.6850   -3.1680 O   0  0  0  0  0  0  0  0  0  0  0  0
   -0.2960   14.4590   -5.0400 C   0  0  1  0  0  0  0  0  0  0  0  0
    1.0390   13.9780   -4.9240 O   0  0  0  0  0  0  0  0  0  0  0  0
   -1.2240   13.7300   -4.1110 C   0  0  2  0  0  0  0  0  0  0  0  0
   -0.8110   14.4290   -2.8180 C   0  0  2  0  0  0  0  0  0  0  0  0
   -3.3790   21.9500   -8.8040 C   0  0  2  0  0  0  0  0  0  0  0  0
   -1.0000   12.3290   -4.1860 O   0  0  0  0  0  0  0  0  0  0  0  0
   -3.9050   23.2190   -8.7900 C   0  0  1  0  0  0  0  0  0  0  0  0
   -4.2550   21.1790   -7.9730 O   0  0  0  0  0  0  0  0  0  0  0  0
   -1.8900   14.7320   -1.9120 N   0  0  0  0  0  0  0  0  0  0  0  0
   -4.4310   23.6080  -10.0490 O   0  0  0  0  0  0  0  0  0  0  0  0
   -5.3820   21.9710   -7.6360 C   0  0  2  0  0  0  0  0  0  0  0  0
   -4.8980   23.3930   -7.8130 C   0  0  2  0  0  0  0  0  0  0  0  0
   -1.6950   14.7550   -0.5850 C   0  0  0  0  0  0  0  0  0  0  0  0
   -3.2180   15.0430   -2.1580 C   0  0  0  0  0  0  0  0  0  0  0  0
   -5.7940   21.7250   -6.2920 O   0  0  0  0  0  0  0  0  0  0  0  0
   -5.9040   24.2620   -8.2950 O   0  0  0  0  0  0  0  0  0  0  0  0
   -3.0550   15.1260   -0.0760 C   0  0  0  0  0  0  0  0  0  0  0  0
   -0.5470   14.5060    0.0410 N   0  0  0  0  0  0  0  0  0  0  0  0
   -3.9190   15.2820   -1.0510 N   0  0  0  0  0  0  0  0  0  0  0  0
   -3.0170   15.2090    1.3180 C   0  0  0  0  0  0  0  0  0  0  0  0
   -0.7310   14.6230    1.3490 C   0  0  0  0  0  0  0  0  0  0  0  0
   -4.0560   15.5340    1.9900 N   0  0  0  0  0  0  0  0  0  0  0  0
   -1.8650   14.9460    1.9920 N   0  0  0  0  0  0  0  0  0  0  0  0
  1  2  1  0
  2  3  1  0
  1  4  2  0
  1  5  1  1
  1  6  1  0
  6  7  1  0
  7  8  2  0
  7  9  1  6
  7 10  1  0
 11  3  1  6
 10 12  1  0
 11 13  1  0
 11 14  1  0
 14 15  1  1
 14 16  1  0
 13 17  1  0
 16 17  1  0
 18 12  1  1
 16 19  1  1
 18 20  1  0
 18 21  1  0
 17 22  1  1
 20 23  1  6
 21 24  1  0
 20 25  1  0
 24 25  1  0
 22 26  1  0
 22 27  1  0
 24 28  1  1
 25 29  1  6
 26 30  2  0
 26 31  1  0
 27 32  2  0
 30 32  1  0
 30 33  1  0
 31 34  2  0
 33 35  1  0
 33 36  2  0
 34 36  1  0
M  END
>  <%Rank>  (16) 
14.851485

>  <N_hits>  (16) 
2

>  <submitter_name>  (16) 
nan

>  <original SMILES>  (16) 
nan

>  <∆G_unbound>  (16) 
2.112923

>  <∆G_bound>  (16) 
-15.615371

>  <regarded>  (16) 
mArh-5cb5_A_0_A,mArh-6mea_B_0_B

>  <ref_pdb>  (16) 
nan

>  <smiles>  (16) 
Nc1ncnc2c1ncn2C1OC(CO[P@@](=O)(O)O[P@@](=O)(O)OCC2OC(O)C(O)C2O)C(O)C1O

>  <submitter_email>  (16) 
nan

>  <disregarded>  (16) 


>  <LE>  (16) 
-0.492453

>  <submitter_institution>  (16) 
nan

>  <ref_mols>  (16) 
mArh-5cb5_A_0_A,mArh-6mea_B_0_B

>  <N_constrained_atoms>  (16) 
36.0

>  <ref_url>  (16) 
nan

>  <method>  (16) 
nan

>  <comRMSD>  (16) 
0.6112

>  <N_unconstrained_atoms>  (16) 
0.0

>  <∆∆G>  (16) 
-17.728294

>  <runtime>  (16) 
53.140171

>  <generation_date>  (16) 
nan

$$$$
mArh-1hjz_B_0_B-mArh-5cms_O_14_O
     RDKit          3D

 44 48  0  0  0  0  0  0  0  0999 V2000
    1.3990   21.1250   -7.3840 O   0  0  0  0  0  0  0  0  0  0  0  0
    0.2070   20.3330   -7.6420 S   0  0  1  0  0  0  0  0  0  0  0  0
    0.2840   18.9430   -8.1870 N   0  0  0  0  0  0  0  0  0  0  0  0
   -0.6630   19.9830   -6.3340 O   0  0  0  0  0  0  0  0  0  0  0  0
   -1.0570   21.3780   -8.4460 C   0  0  1  0  0  0  0  0  0  0  0  0
   -1.9970   22.0210   -7.3880 C   0  0  0  0  0  0  0  0  0  0  0  0
   -1.2700   18.5390   -6.0490 P   0  0  2  0  0  0  0  0  0  0  0  0
   -0.8720   18.5790   -8.8310 O   0  0  0  0  0  0  0  0  0  0  0  0
   -0.2300   22.4350   -9.2190 C   0  0  0  0  0  0  0  0  0  0  0  0
   -0.3330   17.7950   -4.9870 O   0  0  0  0  0  0  0  0  0  0  0  0
   -2.0440   17.7720   -7.0710 O   0  0  0  0  0  0  0  0  0  0  0  0
   -2.3920   19.0880   -5.0810 O   0  0  0  0  0  0  0  0  0  0  0  0
   -3.4300   22.2100   -7.6550 N   0  0  0  0  0  0  0  0  0  0  0  0
   -0.7050   22.9910  -10.5610 C   0  0  2  0  0  0  0  0  0  0  0  0
    0.6000   16.7690   -5.3010 C   0  0  0  0  0  0  0  0  0  0  0  0
   -3.5680   23.1300   -8.7790 C   0  0  0  0  0  0  0  0  0  0  0  0
   -4.2100   22.7520   -6.5220 C   0  0  0  0  0  0  0  0  0  0  0  0
   -1.3630   24.3460  -10.5670 C   0  0  1  0  0  0  0  0  0  0  0  0
   -1.5380   22.0790  -11.3060 O   0  0  0  0  0  0  0  0  0  0  0  0
   -0.6740   25.3150  -11.3390 O   0  0  0  0  0  0  0  0  0  0  0  0
   -5.0380   23.4420   -9.0570 C   0  0  0  0  0  0  0  0  0  0  0  0
   -4.7730   24.1500   -6.8050 C   0  0  0  0  0  0  0  0  0  0  0  0
   -0.0620   15.5100   -4.8080 C   0  0  2  0  0  0  0  0  0  0  0  0
   -2.8610   22.5870  -11.3490 C   0  0  2  0  0  0  0  0  0  0  0  0
   -2.7710   24.0950  -11.0900 C   0  0  2  0  0  0  0  0  0  0  0  0
   -3.6320   21.9580  -10.3510 O   0  0  0  0  0  0  0  0  0  0  0  0
   -2.9180   24.8530  -12.3050 O   0  0  0  0  0  0  0  0  0  0  0  0
   -5.5700   24.2320   -7.9960 O   0  0  0  0  0  0  0  0  0  0  0  0
   -0.0280   15.4540   -3.4020 O   0  0  0  0  0  0  0  0  0  0  0  0
    0.2140   14.0490   -5.2010 C   0  0  1  0  0  0  0  0  0  0  0  0
    1.5300   13.5510   -5.0120 O   0  0  0  0  0  0  0  0  0  0  0  0
   -0.7930   13.3870   -4.2230 C   0  0  2  0  0  0  0  0  0  0  0  0
   -1.1540   14.6270   -3.3760 C   0  0  1  0  0  0  0  0  0  0  0  0
   -0.1600   12.3460   -3.4780 O   0  0  0  0  0  0  0  0  0  0  0  0
   -1.9190   14.7480   -2.1600 N   0  0  0  0  0  0  0  0  0  0  0  0
   -1.5120   14.7290   -0.8360 C   0  0  0  0  0  0  0  0  0  0  0  0
   -3.2650   14.9550   -2.1760 C   0  0  0  0  0  0  0  0  0  0  0  0
   -2.6990   14.9610   -0.1430 C   0  0  0  0  0  0  0  0  0  0  0  0
   -0.3130   14.5580   -0.3070 N   0  0  0  0  0  0  0  0  0  0  0  0
   -3.7680   15.0880   -0.9850 N   0  0  0  0  0  0  0  0  0  0  0  0
   -2.6310   15.0390    1.2320 C   0  0  0  0  0  0  0  0  0  0  0  0
   -0.3840   14.6340    1.0460 C   0  0  0  0  0  0  0  0  0  0  0  0
   -3.7470   15.3170    1.9890 N   0  0  0  0  0  0  0  0  0  0  0  0
   -1.4540   14.8550    1.8310 N   0  0  0  0  0  0  0  0  0  0  0  0
  1  2  2  0
  2  3  2  0
  2  4  1  1
  2  5  1  0
  5  6  1  1
  4  7  1  0
  3  8  1  0
  5  9  1  0
  7 10  1  0
  7 11  2  0
  7 12  1  1
  6 13  1  0
 14  9  1  1
 10 15  1  0
 13 16  1  0
 13 17  1  0
 14 18  1  0
 14 19  1  0
 18 20  1  6
 16 21  1  0
 17 22  1  0
 23 15  1  6
 19 24  1  0
 18 25  1  0
 24 25  1  0
 24 26  1  1
 25 27  1  6
 21 28  1  0
 22 28  1  0
 23 29  1  0
 23 30  1  0
 30 31  1  1
 30 32  1  0
 29 33  1  0
 32 33  1  0
 32 34  1  1
 33 35  1  1
 35 36  1  0
 35 37  1  0
 36 38  2  0
 36 39  1  0
 37 40  2  0
 38 40  1  0
 38 41  1  0
 39 42  2  0
 41 43  1  0
 41 44  2  0
 42 44  1  0
M  END
>  <%Rank>  (17) 
15.841584

>  <N_hits>  (17) 
2

>  <submitter_name>  (17) 
nan

>  <original SMILES>  (17) 
nan

>  <∆G_unbound>  (17) 
7.082893

>  <∆G_bound>  (17) 
-12.021193

>  <regarded>  (17) 
mArh-1hjz_B_0_B,mArh-5cms_O_14_O

>  <ref_pdb>  (17) 
nan

>  <smiles>  (17) 
Nc1ncnc2c1ncn2C1OC(CO[P@@](=O)(O)OS(=O)(=NO)C(CC2OC(O)C(O)C2O)CN2CCOCC2)C(O)C1O

>  <submitter_email>  (17) 
nan

>  <disregarded>  (17) 


>  <LE>  (17) 
-0.434184

>  <submitter_institution>  (17) 
nan

>  <ref_mols>  (17) 
mArh-1hjz_B_0_B,mArh-5cms_O_14_O

>  <N_constrained_atoms>  (17) 
44.0

>  <ref_url>  (17) 
nan

>  <method>  (17) 
nan

>  <comRMSD>  (17) 
0.65451

>  <N_unconstrained_atoms>  (17) 
0.0

>  <∆∆G>  (17) 
-19.104086

>  <runtime>  (17) 
54.598418

>  <generation_date>  (17) 
nan

$$$$
mArh-5cb5_B_0_B-mArh-5cb5_C_0_C
     RDKit          3D

 36 39  0  0  0  0  0  0  0  0999 V2000
   -1.6090   18.3190   -6.1500 P   0  0  1  0  0  0  0  0  0  0  0  0
   -0.3580   17.3850   -6.3510 O   0  0  0  0  0  0  0  0  0  0  0  0
    0.4540   16.8680   -5.3310 C   0  0  0  0  0  0  0  0  0  0  0  0
   -2.8180   17.8980   -6.9040 O   0  0  0  0  0  0  0  0  0  0  0  0
   -1.8600   18.3330   -4.5820 O   0  0  0  0  0  0  0  0  0  0  0  0
   -1.0770   19.7490   -6.4450 O   0  0  0  0  0  0  0  0  0  0  0  0
   -0.3770   20.0200   -7.8230 P   0  0  1  0  0  0  0  0  0  0  0  0
    0.7620   20.9720   -7.8300 O   0  0  0  0  0  0  0  0  0  0  0  0
    0.0430   18.6010   -8.4570 O   0  0  0  0  0  0  0  0  0  0  0  0
   -1.6170   20.3540   -8.7220 O   0  0  0  0  0  0  0  0  0  0  0  0
   -0.2460   15.6890   -4.6960 C   0  0  2  0  0  0  0  0  0  0  0  0
   -2.0690   21.6570   -8.9610 C   0  0  0  0  0  0  0  0  0  0  0  0
    0.0610   15.6430   -3.3040 O   0  0  0  0  0  0  0  0  0  0  0  0
    0.0450   14.2750   -5.1950 C   0  0  1  0  0  0  0  0  0  0  0  0
    1.4120   13.8840   -5.3210 O   0  0  0  0  0  0  0  0  0  0  0  0
   -0.5570   13.4730   -4.0480 C   0  0  1  0  0  0  0  0  0  0  0  0
   -0.4610   14.3780   -2.8210 C   0  0  2  0  0  0  0  0  0  0  0  0
   -3.1070   22.1040   -7.9580 C   0  0  1  0  0  0  0  0  0  0  0  0
   -1.7910   12.9560   -4.4910 O   0  0  0  0  0  0  0  0  0  0  0  0
   -3.7040   23.4550   -8.2500 C   0  0  1  0  0  0  0  0  0  0  0  0
   -4.2530   21.2290   -7.9540 O   0  0  0  0  0  0  0  0  0  0  0  0
   -1.5870   14.6740   -1.9830 N   0  0  0  0  0  0  0  0  0  0  0  0
   -4.2610   23.5900   -9.5580 O   0  0  0  0  0  0  0  0  0  0  0  0
   -5.3110   21.9970   -7.3370 C   0  0  2  0  0  0  0  0  0  0  0  0
   -4.7550   23.4230   -7.1730 C   0  0  2  0  0  0  0  0  0  0  0  0
   -1.5660   14.7110   -0.6730 C   0  0  0  0  0  0  0  0  0  0  0  0
   -2.9080   14.9930   -2.2750 C   0  0  0  0  0  0  0  0  0  0  0  0
   -5.6770   21.4450   -6.0580 O   0  0  0  0  0  0  0  0  0  0  0  0
   -5.8040   24.3480   -7.3320 O   0  0  0  0  0  0  0  0  0  0  0  0
   -2.7740   15.0420   -0.0950 C   0  0  0  0  0  0  0  0  0  0  0  0
   -0.4170   14.4430   -0.0260 N   0  0  0  0  0  0  0  0  0  0  0  0
   -3.6460   15.2210   -1.1610 N   0  0  0  0  0  0  0  0  0  0  0  0
   -2.8530   15.1260    1.2840 C   0  0  0  0  0  0  0  0  0  0  0  0
   -0.5300   14.5150    1.3030 C   0  0  0  0  0  0  0  0  0  0  0  0
   -3.9960   15.4780    1.9750 N   0  0  0  0  0  0  0  0  0  0  0  0
   -1.6130   14.8190    2.0250 N   0  0  0  0  0  0  0  0  0  0  0  0
  1  2  1  0
  2  3  1  0
  1  4  2  0
  1  5  1  1
  1  6  1  0
  6  7  1  0
  7  8  2  0
  7  9  1  6
  7 10  1  0
 11  3  1  6
 10 12  1  0
 11 13  1  0
 11 14  1  0
 14 15  1  1
 14 16  1  0
 13 17  1  0
 16 17  1  0
 18 12  1  6
 16 19  1  6
 18 20  1  0
 18 21  1  0
 17 22  1  6
 20 23  1  6
 21 24  1  0
 20 25  1  0
 24 25  1  0
 22 26  1  0
 22 27  1  0
 24 28  1  1
 25 29  1  6
 26 30  2  0
 26 31  1  0
 27 32  2  0
 30 32  1  0
 30 33  1  0
 31 34  2  0
 33 35  1  0
 33 36  2  0
 34 36  1  0
M  END
>  <%Rank>  (18) 
16.831683

>  <N_hits>  (18) 
2

>  <submitter_name>  (18) 
nan

>  <original SMILES>  (18) 
nan

>  <∆G_unbound>  (18) 
4.122881

>  <∆G_bound>  (18) 
-14.380005

>  <regarded>  (18) 
mArh-5cb5_B_0_B,mArh-5cb5_C_0_C

>  <ref_pdb>  (18) 
nan

>  <smiles>  (18) 
Nc1ncnc2c1ncn2C1OC(CO[P@@](=O)(O)O[P@@](=O)(O)OCC2OC(O)C(O)C2O)C(O)C1O

>  <submitter_email>  (18) 
nan

>  <disregarded>  (18) 


>  <LE>  (18) 
-0.513969

>  <submitter_institution>  (18) 
nan

>  <ref_mols>  (18) 
mArh-5cb5_B_0_B,mArh-5cb5_C_0_C

>  <N_constrained_atoms>  (18) 
36.0

>  <ref_url>  (18) 
nan

>  <method>  (18) 
nan

>  <comRMSD>  (18) 
0.639125

>  <N_unconstrained_atoms>  (18) 
0.0

>  <∆∆G>  (18) 
-18.502886

>  <runtime>  (18) 
41.544759

>  <generation_date>  (18) 
nan

$$$$
mArh-5cb5_D_0_D-mArh-5cb5_F_1_F
     RDKit          3D

 39 42  0  0  0  0  0  0  0  0999 V2000
   -1.7310   18.4530   -6.0740 P   0  0  1  0  0  0  0  0  0  0  0  0
   -1.1000   17.1900   -5.3630 O   0  0  0  0  0  0  0  0  0  0  0  0
    0.3170   17.1350   -5.3340 C   0  0  0  0  0  0  0  0  0  0  0  0
   -2.7150   18.1240   -7.1270 O   0  0  0  0  0  0  0  0  0  0  0  0
   -2.3680   19.3570   -4.9170 O   0  0  0  0  0  0  0  0  0  0  0  0
   -0.4950   19.3380   -6.4340 O   0  0  0  0  0  0  0  0  0  0  0  0
   -0.0930   19.9080   -7.8330 P   0  0  1  0  0  0  0  0  0  0  0  0
    1.0990   20.7990   -7.7720 O   0  0  0  0  0  0  0  0  0  0  0  0
    0.0940   18.5980   -8.7660 O   0  0  0  0  0  0  0  0  0  0  0  0
   -1.3860   20.5480   -8.4740 O   0  0  0  0  0  0  0  0  0  0  0  0
    0.7340   15.8550   -4.6430 C   0  0  1  0  0  0  0  0  0  0  0  0
   -1.6260   21.8760   -8.0910 C   0  0  0  0  0  0  0  0  0  0  0  0
    0.2280   15.9030   -3.3010 O   0  0  0  0  0  0  0  0  0  0  0  0
    0.2530   14.5420   -5.2770 C   0  0  1  0  0  0  0  0  0  0  0  0
    1.2130   13.9110   -6.0970 O   0  0  0  0  0  0  0  0  0  0  0  0
   -0.0160   13.6360   -4.1040 C   0  0  1  0  0  0  0  0  0  0  0  0
   -0.1760   14.5780   -2.9130 C   0  0  2  0  0  0  0  0  0  0  0  0
   -3.0870   22.1950   -7.9170 C   0  0  1  0  0  0  0  0  0  0  0  0
   -0.9730   12.6320   -4.3270 O   0  0  0  0  0  0  0  0  0  0  0  0
   -3.6420   23.4570   -8.5360 C   0  0  1  0  0  0  0  0  0  0  0  0
   -4.0050   21.2050   -8.3680 O   0  0  0  0  0  0  0  0  0  0  0  0
   -1.3480   14.7160   -2.0880 N   0  0  0  0  0  0  0  0  0  0  0  0
   -3.8050   23.5030   -9.9390 O   0  0  0  0  0  0  0  0  0  0  0  0
   -5.2630   21.7970   -8.0350 C   0  0  2  0  0  0  0  0  0  0  0  0
   -5.0410   23.2740   -8.0860 C   0  0  1  0  0  0  0  0  0  0  0  0
   -1.3210   14.7280   -0.7480 C   0  0  0  0  0  0  0  0  0  0  0  0
   -2.6700   14.8710   -2.4790 C   0  0  0  0  0  0  0  0  0  0  0  0
   -5.6620   21.3980   -6.7120 O   0  0  0  0  0  0  0  0  0  0  0  0
   -5.4720   23.9310   -6.8610 C   0  0  0  0  0  0  0  0  0  0  0  0
   -2.6340   14.9040   -0.3430 C   0  0  0  0  0  0  0  0  0  0  0  0
   -0.2220   14.6010    0.0010 N   0  0  0  0  0  0  0  0  0  0  0  0
   -3.4800   14.9900   -1.4360 N   0  0  0  0  0  0  0  0  0  0  0  0
   -5.8240   22.9260   -5.9540 O   0  0  0  0  0  0  0  0  0  0  0  0
   -4.5140   24.9330   -6.2200 C   0  0  0  0  0  0  0  0  0  0  0  0
   -6.6750   24.4700   -7.2240 O   0  0  0  0  0  0  0  0  0  0  0  0
   -2.8400   14.9650    1.0430 C   0  0  0  0  0  0  0  0  0  0  0  0
   -0.5400   14.6530    1.2980 C   0  0  0  0  0  0  0  0  0  0  0  0
   -4.0840   15.1680    1.6110 N   0  0  0  0  0  0  0  0  0  0  0  0
   -1.7620   14.8180    1.8530 N   0  0  0  0  0  0  0  0  0  0  0  0
  1  2  1  0
  2  3  1  0
  1  4  2  0
  1  5  1  1
  1  6  1  0
  6  7  1  0
  7  8  2  0
  7  9  1  6
  7 10  1  0
 11  3  1  6
 10 12  1  0
 11 13  1  0
 11 14  1  0
 14 15  1  6
 14 16  1  0
 13 17  1  0
 16 17  1  0
 18 12  1  6
 16 19  1  6
 18 20  1  0
 18 21  1  0
 17 22  1  6
 20 23  1  6
 21 24  1  0
 20 25  1  0
 24 25  1  0
 22 26  1  0
 22 27  1  0
 24 28  1  1
 25 29  1  1
 26 30  2  0
 26 31  1  0
 27 32  2  0
 30 32  1  0
 29 33  1  0
 29 34  1  0
 29 35  1  0
 30 36  1  0
 31 37  2  0
 36 38  1  0
 36 39  2  0
 37 39  1  0
M  END
>  <%Rank>  (19) 
17.821782

>  <N_hits>  (19) 
2

>  <submitter_name>  (19) 
nan

>  <original SMILES>  (19) 
nan

>  <∆G_unbound>  (19) 
5.515544

>  <∆G_bound>  (19) 
-14.525676

>  <regarded>  (19) 
mArh-5cb5_D_0_D,mArh-5cb5_F_1_F

>  <ref_pdb>  (19) 
nan

>  <smiles>  (19) 
CC(O)(O)C1C(O)OC(CO[P@](=O)(O)O[P@](=O)(O)OCC2OC(n3cnc4c(N)ncnc43)C(O)C2O)C1O

>  <submitter_email>  (19) 
nan

>  <disregarded>  (19) 


>  <LE>  (19) 
-0.513877

>  <submitter_institution>  (19) 
nan

>  <ref_mols>  (19) 
mArh-5cb5_D_0_D,mArh-5cb5_F_1_F

>  <N_constrained_atoms>  (19) 
39.0

>  <ref_url>  (19) 
nan

>  <method>  (19) 
nan

>  <comRMSD>  (19) 
0.697773

>  <N_unconstrained_atoms>  (19) 
0.0

>  <∆∆G>  (19) 
-20.041221

>  <runtime>  (19) 
49.232532

>  <generation_date>  (19) 
nan

$$$$
mArh-4iqy_A_0_A-mArh-5cb5_K_0_K
     RDKit          3D

 36 39  0  0  0  0  0  0  0  0999 V2000
   -1.4310   18.0400   -5.9330 P   0  0  2  0  0  0  0  0  0  0  0  0
   -0.0870   17.2590   -6.3000 O   0  0  0  0  0  0  0  0  0  0  0  0
    0.7200   16.6980   -5.2760 C   0  0  0  0  0  0  0  0  0  0  0  0
   -1.9390   17.9170   -4.5620 O   0  0  0  0  0  0  0  0  0  0  0  0
   -2.5410   17.4560   -6.9180 O   0  0  0  0  0  0  0  0  0  0  0  0
   -1.1900   19.4840   -6.4740 O   0  0  0  0  0  0  0  0  0  0  0  0
   -0.3870   19.8350   -7.7870 P   0  0  1  0  0  0  0  0  0  0  0  0
    0.7940   20.7400   -7.6690 O   0  0  0  0  0  0  0  0  0  0  0  0
    0.0110   18.4610   -8.5360 O   0  0  0  0  0  0  0  0  0  0  0  0
   -1.5460   20.2420   -8.7720 O   0  0  0  0  0  0  0  0  0  0  0  0
   -0.0390   15.5550   -4.6630 C   0  0  2  0  0  0  0  0  0  0  0  0
   -2.1230   21.5170   -8.7470 C   0  0  0  0  0  0  0  0  0  0  0  0
   -0.2030   15.6430   -3.2600 O   0  0  0  0  0  0  0  0  0  0  0  0
    0.3520   14.0940   -4.8870 C   0  0  1  0  0  0  0  0  0  0  0  0
    1.6580   13.7720   -4.4440 O   0  0  0  0  0  0  0  0  0  0  0  0
   -0.7220   13.4540   -3.9820 C   0  0  2  0  0  0  0  0  0  0  0  0
   -1.2680   14.6910   -3.2380 C   0  0  1  0  0  0  0  0  0  0  0  0
   -3.1160   21.8270   -7.6700 C   0  0  1  0  0  0  0  0  0  0  0  0
   -0.2670   12.3140   -3.2730 O   0  0  0  0  0  0  0  0  0  0  0  0
   -3.7630   23.2020   -7.8030 C   0  0  1  0  0  0  0  0  0  0  0  0
   -4.2240   20.9200   -7.6870 O   0  0  0  0  0  0  0  0  0  0  0  0
   -1.9830   14.8060   -2.0030 N   0  0  0  0  0  0  0  0  0  0  0  0
   -4.3680   23.5800   -9.0560 O   0  0  0  0  0  0  0  0  0  0  0  0
   -5.1890   21.5730   -6.8760 C   0  0  1  0  0  0  0  0  0  0  0  0
   -4.7540   23.0440   -6.6890 C   0  0  2  0  0  0  0  0  0  0  0  0
   -1.6050   14.7730   -0.6930 C   0  0  0  0  0  0  0  0  0  0  0  0
   -3.3350   15.0210   -2.0380 C   0  0  0  0  0  0  0  0  0  0  0  0
   -6.4360   21.5100   -7.5790 O   0  0  0  0  0  0  0  0  0  0  0  0
   -5.8130   23.9890   -6.7950 O   0  0  0  0  0  0  0  0  0  0  0  0
   -2.7910   14.9960   -0.0150 C   0  0  0  0  0  0  0  0  0  0  0  0
   -0.3930   14.5900   -0.1530 N   0  0  0  0  0  0  0  0  0  0  0  0
   -3.8510   15.1390   -0.8570 N   0  0  0  0  0  0  0  0  0  0  0  0
   -2.7430   15.0510    1.3480 C   0  0  0  0  0  0  0  0  0  0  0  0
   -0.4740   14.6430    1.1920 C   0  0  0  0  0  0  0  0  0  0  0  0
   -3.8800   15.3150    2.0670 N   0  0  0  0  0  0  0  0  0  0  0  0
   -1.5590   14.8530    1.9600 N   0  0  0  0  0  0  0  0  0  0  0  0
  1  2  1  0
  2  3  1  0
  1  4  2  0
  1  5  1  6
  1  6  1  0
  6  7  1  0
  7  8  2  0
  7  9  1  6
  7 10  1  0
 11  3  1  1
 10 12  1  0
 11 13  1  0
 11 14  1  0
 14 15  1  1
 14 16  1  0
 13 17  1  0
 16 17  1  0
 18 12  1  6
 16 19  1  1
 18 20  1  0
 18 21  1  0
 17 22  1  1
 20 23  1  6
 21 24  1  0
 20 25  1  0
 24 25  1  0
 22 26  1  0
 22 27  1  0
 24 28  1  6
 25 29  1  6
 26 30  2  0
 26 31  1  0
 27 32  2  0
 30 32  1  0
 30 33  1  0
 31 34  2  0
 33 35  1  0
 33 36  2  0
 34 36  1  0
M  END
>  <%Rank>  (20) 
18.811881

>  <N_hits>  (20) 
2

>  <submitter_name>  (20) 
nan

>  <original SMILES>  (20) 
nan

>  <∆G_unbound>  (20) 
5.269785

>  <∆G_bound>  (20) 
-14.649506

>  <regarded>  (20) 
mArh-4iqy_A_0_A,mArh-5cb5_K_0_K

>  <ref_pdb>  (20) 
nan

>  <smiles>  (20) 
Nc1ncnc2c1ncn2C1OC(CO[P@](=O)(O)O[P@@](=O)(O)OCC2OC(O)C(O)C2O)C(O)C1O

>  <submitter_email>  (20) 
nan

>  <disregarded>  (20) 


>  <LE>  (20) 
-0.553314

>  <submitter_institution>  (20) 
nan

>  <ref_mols>  (20) 
mArh-4iqy_A_0_A,mArh-5cb5_K_0_K

>  <N_constrained_atoms>  (20) 
36.0

>  <ref_url>  (20) 
nan

>  <method>  (20) 
nan

>  <comRMSD>  (20) 
0.6933

>  <N_unconstrained_atoms>  (20) 
0.0

>  <∆∆G>  (20) 
-19.919291

>  <runtime>  (20) 
48.939463

>  <generation_date>  (20) 
nan

$$$$
mArh-5cb5_O_0_O-mArh-5cb5_H_0_H
     RDKit          3D

 36 39  0  0  0  0  0  0  0  0999 V2000
   -1.4440   18.4850   -5.9730 P   0  0  1  0  0  0  0  0  0  0  0  0
   -0.5940   17.7460   -4.8740 O   0  0  0  0  0  0  0  0  0  0  0  0
    0.4960   16.9250   -5.2340 C   0  0  0  0  0  0  0  0  0  0  0  0
   -2.2820   17.6750   -6.9180 O   0  0  0  0  0  0  0  0  0  0  0  0
   -2.3420   19.4520   -5.0720 O   0  0  0  0  0  0  0  0  0  0  0  0
   -0.3020   19.4060   -6.4980 O   0  0  0  0  0  0  0  0  0  0  0  0
   -0.2210   19.9440   -7.9410 P   0  0  1  0  0  0  0  0  0  0  0  0
    0.7530   21.0430   -8.0840 O   0  0  0  0  0  0  0  0  0  0  0  0
    0.0550   18.6270   -8.8160 O   0  0  0  0  0  0  0  0  0  0  0  0
   -1.7300   20.2760   -8.2650 O   0  0  0  0  0  0  0  0  0  0  0  0
   -0.0580   15.6080   -4.8080 C   0  0  2  0  0  0  0  0  0  0  0  0
   -2.0910   21.5420   -8.7380 C   0  0  0  0  0  0  0  0  0  0  0  0
   -0.0980   15.5780   -3.4050 O   0  0  0  0  0  0  0  0  0  0  0  0
    0.3160   14.1910   -5.1910 C   0  0  1  0  0  0  0  0  0  0  0  0
    1.6430   13.8430   -4.7840 O   0  0  0  0  0  0  0  0  0  0  0  0
   -0.7060   13.4730   -4.2640 C   0  0  2  0  0  0  0  0  0  0  0  0
   -1.1840   14.7010   -3.4400 C   0  0  1  0  0  0  0  0  0  0  0  0
   -3.2850   22.0210   -7.9790 C   0  0  1  0  0  0  0  0  0  0  0  0
   -0.1040   12.4290   -3.5380 O   0  0  0  0  0  0  0  0  0  0  0  0
   -3.6750   23.4850   -8.0430 C   0  0  1  0  0  0  0  0  0  0  0  0
   -4.4890   21.4130   -8.4400 O   0  0  0  0  0  0  0  0  0  0  0  0
   -1.9630   14.8080   -2.2350 N   0  0  0  0  0  0  0  0  0  0  0  0
   -4.2160   23.9790   -9.2600 O   0  0  0  0  0  0  0  0  0  0  0  0
   -5.4870   22.1040   -7.6850 C   0  0  2  0  0  0  0  0  0  0  0  0
   -4.7630   23.2740   -7.0160 C   0  0  2  0  0  0  0  0  0  0  0  0
   -1.6190   14.8110   -0.9060 C   0  0  0  0  0  0  0  0  0  0  0  0
   -3.3230   14.9770   -2.3110 C   0  0  0  0  0  0  0  0  0  0  0  0
   -6.0260   21.2720   -6.6750 O   0  0  0  0  0  0  0  0  0  0  0  0
   -5.6510   24.3920   -6.9010 O   0  0  0  0  0  0  0  0  0  0  0  0
   -2.8350   15.0070   -0.2580 C   0  0  0  0  0  0  0  0  0  0  0  0
   -0.4150   14.6790   -0.3170 N   0  0  0  0  0  0  0  0  0  0  0  0
   -3.8810   15.1000   -1.1400 N   0  0  0  0  0  0  0  0  0  0  0  0
   -2.8130   15.0900    1.1290 C   0  0  0  0  0  0  0  0  0  0  0  0
   -0.5260   14.7570    1.0250 C   0  0  0  0  0  0  0  0  0  0  0  0
   -3.9680   15.3250    1.8470 N   0  0  0  0  0  0  0  0  0  0  0  0
   -1.6340   14.9490    1.7720 N   0  0  0  0  0  0  0  0  0  0  0  0
  1  2  1  0
  2  3  1  0
  1  4  2  0
  1  5  1  1
  1  6  1  0
  6  7  1  0
  7  8  2  0
  7  9  1  6
  7 10  1  0
 11  3  1  1
 10 12  1  0
 11 13  1  0
 11 14  1  0
 14 15  1  1
 14 16  1  0
 13 17  1  0
 16 17  1  0
 18 12  1  6
 16 19  1  1
 18 20  1  0
 18 21  1  0
 17 22  1  1
 20 23  1  6
 21 24  1  0
 20 25  1  0
 24 25  1  0
 22 26  1  0
 22 27  1  0
 24 28  1  1
 25 29  1  6
 26 30  2  0
 26 31  1  0
 27 32  2  0
 30 32  1  0
 30 33  1  0
 31 34  2  0
 33 35  1  0
 33 36  2  0
 34 36  1  0
M  END
>  <%Rank>  (21) 
19.80198

>  <N_hits>  (21) 
2

>  <submitter_name>  (21) 
nan

>  <original SMILES>  (21) 
nan

>  <∆G_unbound>  (21) 
4.299768

>  <∆G_bound>  (21) 
-16.919671

>  <regarded>  (21) 
mArh-5cb5_O_0_O,mArh-5cb5_H_0_H

>  <ref_pdb>  (21) 
nan

>  <smiles>  (21) 
Nc1ncnc2c1ncn2C1OC(CO[P@@](=O)(O)O[P@@](=O)(O)OCC2OC(O)C(O)C2O)C(O)C1O

>  <submitter_email>  (21) 
nan

>  <disregarded>  (21) 


>  <LE>  (21) 
-0.589429

>  <submitter_institution>  (21) 
nan

>  <ref_mols>  (21) 
mArh-5cb5_O_0_O,mArh-5cb5_H_0_H

>  <N_constrained_atoms>  (21) 
36.0

>  <ref_url>  (21) 
nan

>  <method>  (21) 
nan

>  <comRMSD>  (21) 
0.732952

>  <N_unconstrained_atoms>  (21) 
0.0

>  <∆∆G>  (21) 
-21.219439

>  <runtime>  (21) 
48.340085

>  <generation_date>  (21) 
nan

$$$$
mArh-3ew5_A_0_A-mArh-x0380_0_B
     RDKit          3D

 28 28  0  0  0  0  0  0  0  0999 V2000
   -0.2180   20.0200   -7.7110 P   0  0  0  0  0  0  0  0  0  0  0  0
   -1.8000   20.3130   -7.6420 O   0  0  0  0  0  0  0  0  0  0  0  0
   -2.2510   21.5880   -8.1320 C   0  0  0  0  0  0  0  0  0  0  0  0
    0.6750   21.1890   -7.9140 O   0  0  0  0  0  0  0  0  0  0  0  0
    0.0100   18.8320   -8.7640 O   0  0  0  0  0  0  0  0  0  0  0  0
    0.0970   19.1780   -6.4060 O   0  0  0  0  0  0  0  0  0  0  0  0
   -3.4230   22.1150   -7.2780 C   0  0  2  0  0  0  0  0  0  0  0  0
   -4.7780   22.1630   -8.0290 C   0  0  1  0  0  0  0  0  0  0  0  0
   -3.1210   23.4420   -6.8170 O   0  0  0  0  0  0  0  0  0  0  0  0
   -5.8130   21.7100   -7.1310 O   0  0  0  0  0  0  0  0  0  0  0  0
   -5.2030   23.5590   -8.4850 C   0  0  0  0  0  0  0  0  0  0  0  0
   -6.6490   23.7120   -8.9630 C   0  0  0  0  0  0  0  0  0  0  0  0
   -6.7940   24.4350  -10.3080 C   0  0  0  0  0  0  0  0  0  0  0  0
   -7.4640   25.8230  -10.2640 C   0  0  0  0  0  0  0  0  0  0  0  0
   -6.6900   26.8200  -11.1330 C   0  0  0  0  0  0  0  0  0  0  0  0
   -7.0790   28.3040  -10.9850 C   0  0  0  0  0  0  0  0  0  0  0  0
   -6.9100   28.9610  -12.3260 C   0  0  0  0  0  0  0  0  0  0  0  0
   -5.6450   29.2190  -12.8860 C   0  0  0  0  0  0  0  0  0  0  0  0
   -8.0650   29.3130  -13.0330 C   0  0  0  0  0  0  0  0  0  0  0  0
   -4.4100   28.8520  -12.1260 C   0  0  0  0  0  0  0  0  0  0  0  0
   -7.9680   29.9060  -14.2820 C   0  0  0  0  0  0  0  0  0  0  0  0
   -5.5440   29.8150  -14.1550 C   0  0  0  0  0  0  0  0  0  0  0  0
   -4.2500   30.0390  -14.6770 N   0  0  0  0  0  0  0  0  0  0  0  0
   -6.7140   30.1530  -14.8380 C   0  0  0  0  0  0  0  0  0  0  0  0
   -3.8280   31.0850  -15.4650 C   0  0  0  0  0  0  0  0  0  0  0  0
   -4.4780   32.0660  -15.7910 O   0  0  0  0  0  0  0  0  0  0  0  0
   -2.4010   30.9030  -15.9480 C   0  0  0  0  0  0  0  0  0  0  0  0
   -2.2590   31.4590  -17.3030 N   0  0  0  0  0  0  0  0  0  0  0  0
  1  2  1  0
  2  3  1  0
  1  4  2  0
  1  5  1  0
  1  6  1  0
  3  7  1  0
  7  8  1  0
  7  9  1  6
  8 10  1  1
  8 11  1  0
 11 12  1  0
 12 13  1  0
 13 14  1  0
 14 15  1  0
 15 16  1  0
 16 17  1  0
 17 18  2  0
 17 19  1  0
 18 20  1  0
 19 21  2  0
 18 22  1  0
 22 23  1  0
 21 24  1  0
 22 24  2  0
 23 25  1  0
 25 26  2  0
 25 27  1  0
 27 28  1  0
M  END
>  <%Rank>  (22) 
20.792079

>  <N_hits>  (22) 
2

>  <submitter_name>  (22) 
nan

>  <original SMILES>  (22) 
nan

>  <∆G_unbound>  (22) 
0.185436

>  <∆G_bound>  (22) 
-12.882943

>  <regarded>  (22) 
mArh-3ew5_A_0_A,mArh-x0380_0_B

>  <ref_pdb>  (22) 
nan

>  <smiles>  (22) 
Cc1c(CCCCCCC(O)[C@H](O)COP(=O)(O)O)cccc1NC(=O)CN

>  <submitter_email>  (22) 
nan

>  <disregarded>  (22) 


>  <LE>  (22) 
-0.466728

>  <submitter_institution>  (22) 
nan

>  <ref_mols>  (22) 
mArh-3ew5_A_0_A,mArh-x0380_0_B

>  <N_constrained_atoms>  (22) 
23.0

>  <ref_url>  (22) 
nan

>  <method>  (22) 
nan

>  <comRMSD>  (22) 
0.410121

>  <N_unconstrained_atoms>  (22) 
5.0

>  <∆∆G>  (22) 
-13.068379

>  <runtime>  (22) 
40.820431

>  <generation_date>  (22) 
nan

$$$$
mArh-x0628_0_A-mArh-5l9k_B_0_B
     RDKit          3D

 46 51  0  0  0  0  0  0  0  0999 V2000
   -0.7590    8.9800   -7.4090 C   0  0  0  0  0  0  0  0  0  0  0  0
   -0.9010   10.1260   -6.5170 C   0  0  0  0  0  0  0  0  0  0  0  0
   -2.1050   10.4880   -5.9490 N   0  0  0  0  0  0  0  0  0  0  0  0
    0.0790   10.9200   -6.1620 N   0  0  0  0  0  0  0  0  0  0  0  0
   -0.5210   11.8120   -5.3330 N   0  0  0  0  0  0  0  0  0  0  0  0
   -1.8060   11.5510   -5.2230 C   0  0  0  0  0  0  0  0  0  0  0  0
   -2.7140   12.4180   -4.3560 C   0  0  0  0  0  0  0  0  0  0  0  0
    0.0750   12.9130   -4.6330 C   0  0  1  0  0  0  0  0  0  0  0  0
    1.4170   13.0550   -4.4040 C   0  0  0  0  0  0  0  0  0  0  0  0
   -0.9060   14.0220   -4.8930 C   0  0  1  0  0  0  0  0  0  0  0  0
   -1.8570   13.5570   -3.7770 C   0  0  1  0  0  0  0  0  0  0  0  0
    1.6860   12.4870   -3.1480 C   0  0  0  0  0  0  0  0  0  0  0  0
   -0.8890   15.5340   -4.7150 C   0  0  2  0  0  0  0  0  0  0  0  0
   -2.3860   14.8900   -3.2750 C   0  0  2  0  0  0  0  0  0  0  0  0
    1.2030   11.4150   -2.8040 O   0  0  0  0  0  0  0  0  0  0  0  0
    2.4530   13.1980   -2.3090 O   0  0  0  0  0  0  0  0  0  0  0  0
    0.2210   16.4610   -5.1810 C   0  0  0  0  0  0  0  0  0  0  0  0
   -1.1700   15.6480   -3.3360 O   0  0  0  0  0  0  0  0  0  0  0  0
   -2.9910   15.0590   -1.9730 N   0  0  0  0  0  0  0  0  0  0  0  0
   -0.3460   17.2940   -6.1970 O   0  0  0  0  0  0  0  0  0  0  0  0
   -2.4270   14.9700   -0.7140 C   0  0  0  0  0  0  0  0  0  0  0  0
   -4.3050   15.3790   -1.8110 C   0  0  0  0  0  0  0  0  0  0  0  0
   -1.6730   18.1510   -5.9010 P   0  0  2  0  0  0  0  0  0  0  0  0
   -3.4790   15.2710    0.1360 C   0  0  0  0  0  0  0  0  0  0  0  0
   -1.1600   14.6790   -0.3550 N   0  0  0  0  0  0  0  0  0  0  0  0
   -4.6380   15.5160   -0.5570 N   0  0  0  0  0  0  0  0  0  0  0  0
   -2.1160   18.1040   -4.5050 O   0  0  0  0  0  0  0  0  0  0  0  0
   -2.7560   17.4930   -6.8740 O   0  0  0  0  0  0  0  0  0  0  0  0
   -1.3720   19.5700   -6.4970 O   0  0  0  0  0  0  0  0  0  0  0  0
   -3.2120   15.2860    1.4990 C   0  0  0  0  0  0  0  0  0  0  0  0
   -1.0160   14.7090    0.9880 C   0  0  0  0  0  0  0  0  0  0  0  0
   -0.7170   19.8610   -7.8960 P   0  0  2  0  0  0  0  0  0  0  0  0
   -4.1940   15.6040    2.4140 N   0  0  0  0  0  0  0  0  0  0  0  0
   -1.9540   14.9850    1.9180 N   0  0  0  0  0  0  0  0  0  0  0  0
   -0.1070   18.5980   -8.6640 O   0  0  0  0  0  0  0  0  0  0  0  0
    0.3790   20.9860   -7.6690 O   0  0  0  0  0  0  0  0  0  0  0  0
   -1.8670   20.5480   -8.7430 O   0  0  0  0  0  0  0  0  0  0  0  0
   -2.2980   21.8670   -8.5740 C   0  0  0  0  0  0  0  0  0  0  0  0
   -3.4700   22.0700   -7.6760 C   0  0  1  0  0  0  0  0  0  0  0  0
   -4.1110   23.4590   -7.7910 C   0  0  1  0  0  0  0  0  0  0  0  0
   -4.5460   21.1490   -7.9600 O   0  0  0  0  0  0  0  0  0  0  0  0
   -4.6140   23.7780   -9.1180 O   0  0  0  0  0  0  0  0  0  0  0  0
   -5.6510   21.7200   -7.2670 C   0  0  1  0  0  0  0  0  0  0  0  0
   -5.1740   23.1630   -6.9960 C   0  0  2  0  0  0  0  0  0  0  0  0
   -6.8190   21.5800   -8.0750 O   0  0  0  0  0  0  0  0  0  0  0  0
   -6.1830   24.1550   -7.1320 O   0  0  0  0  0  0  0  0  0  0  0  0
  1  2  1  0
  2  3  1  0
  2  4  2  0
  4  5  1  0
  3  6  2  0
  5  6  1  0
  6  7  1  0
  5  8  1  0
  8  9  1  6
 10  8  1  1
 11  7  1  6
 10 11  1  0
  9 12  1  0
 10 13  1  0
 11 14  1  0
 12 15  2  0
 12 16  1  0
 13 17  1  1
 13 18  1  0
 14 18  1  0
 14 19  1  1
 17 20  1  0
 19 21  1  0
 19 22  1  0
 20 23  1  0
 21 24  2  0
 21 25  1  0
 22 26  2  0
 24 26  1  0
 23 27  2  0
 23 28  1  6
 23 29  1  0
 24 30  1  0
 25 31  2  0
 29 32  1  0
 30 33  1  0
 30 34  2  0
 31 34  1  0
 32 35  2  0
 32 36  1  1
 32 37  1  0
 37 38  1  0
 39 38  1  6
 39 40  1  0
 39 41  1  0
 40 42  1  6
 41 43  1  0
 40 44  1  0
 43 44  1  0
 43 45  1  6
 44 46  1  6
M  END
>  <%Rank>  (23) 
21.782178

>  <N_hits>  (23) 
2

>  <submitter_name>  (23) 
nan

>  <original SMILES>  (23) 
nan

>  <∆G_unbound>  (23) 
5.308473

>  <∆G_bound>  (23) 
-13.452635

>  <regarded>  (23) 
mArh-x0628_0_A,mArh-5l9k_B_0_B

>  <ref_pdb>  (23) 
nan

>  <smiles>  (23) 
Cc1nc2n(n1)C(CC(=O)O)C1C(CO[P@](=O)(O)O[P@](=O)(O)OCC3OC(O)C(O)C3O)OC(n3cnc4c(N)ncnc43)C1C2

>  <submitter_email>  (23) 
nan

>  <disregarded>  (23) 


>  <LE>  (23) 
-0.40785

>  <submitter_institution>  (23) 
nan

>  <ref_mols>  (23) 
mArh-x0628_0_A,mArh-5l9k_B_0_B

>  <N_constrained_atoms>  (23) 
46.0

>  <ref_url>  (23) 
nan

>  <method>  (23) 
nan

>  <comRMSD>  (23) 
0.741382

>  <N_unconstrained_atoms>  (23) 
0.0

>  <∆∆G>  (23) 
-18.761108

>  <runtime>  (23) 
53.706202

>  <generation_date>  (23) 
nan

$$$$
mArh-5cb5_B_0_B-mArh-x0895_0_A
     RDKit          3D

 37 40  0  0  0  0  0  0  0  0999 V2000
   -1.5850   18.3070   -6.0990 P   0  0  1  0  0  0  0  0  0  0  0  0
   -0.2870   17.4220   -6.3710 O   0  0  0  0  0  0  0  0  0  0  0  0
    0.4710   16.9200   -5.2740 C   0  0  0  0  0  0  0  0  0  0  0  0
   -2.7940   17.6010   -6.8420 O   0  0  0  0  0  0  0  0  0  0  0  0
   -1.7310   18.4630   -4.5220 O   0  0  0  0  0  0  0  0  0  0  0  0
   -1.1510   19.7130   -6.5830 O   0  0  0  0  0  0  0  0  0  0  0  0
   -0.3320   19.9820   -7.8900 P   0  0  1  0  0  0  0  0  0  0  0  0
    0.9060   20.7850   -7.7100 O   0  0  0  0  0  0  0  0  0  0  0  0
   -0.0760   18.5800   -8.6320 O   0  0  0  0  0  0  0  0  0  0  0  0
   -1.4300   20.6500   -8.8120 O   0  0  0  0  0  0  0  0  0  0  0  0
   -0.2990   15.7130   -4.7860 C   0  0  2  0  0  0  0  0  0  0  0  0
   -2.0690   21.7540   -8.1970 C   0  0  0  0  0  0  0  0  0  0  0  0
   -0.4770   15.6790   -3.3650 O   0  0  0  0  0  0  0  0  0  0  0  0
    0.1660   14.2870   -5.1300 C   0  0  1  0  0  0  0  0  0  0  0  0
    1.5480   14.0570   -5.2470 O   0  0  0  0  0  0  0  0  0  0  0  0
   -0.4250   13.4920   -3.9680 C   0  0  1  0  0  0  0  0  0  0  0  0
   -1.3540   14.5620   -3.4130 C   0  0  1  0  0  0  0  0  0  0  0  0
   -3.4070   22.0850   -8.8300 C   0  0  2  0  0  0  0  0  0  0  0  0
   -1.0390   12.3050   -4.4420 O   0  0  0  0  0  0  0  0  0  0  0  0
   -3.8650   23.4990   -8.5350 C   0  0  1  0  0  0  0  0  0  0  0  0
   -4.4510   21.2370   -8.3440 O   0  0  0  0  0  0  0  0  0  0  0  0
   -2.1520   14.2060   -2.2510 N   0  0  0  0  0  0  0  0  0  0  0  0
   -4.6710   24.0760   -9.5400 O   0  0  0  0  0  0  0  0  0  0  0  0
   -5.2990   21.9810   -7.4570 C   0  0  2  0  0  0  0  0  0  0  0  0
   -4.6100   23.3090   -7.2240 C   0  0  2  0  0  0  0  0  0  0  0  0
   -1.6870   14.5810   -0.9330 C   0  0  1  0  0  0  0  0  0  0  0  0
   -3.4010   15.0100   -2.3500 C   0  0  0  0  0  0  0  0  0  0  0  0
   -5.4080   21.3260   -6.1980 O   0  0  0  0  0  0  0  0  0  0  0  0
   -5.5800   24.3150   -6.9250 O   0  0  0  0  0  0  0  0  0  0  0  0
   -3.0630   14.5820   -0.2750 C   0  0  1  0  0  0  0  0  0  0  0  0
   -0.7410   13.7220   -0.2490 N   0  0  0  0  0  0  0  0  0  0  0  0
   -3.7400   15.5810   -1.0400 N   0  0  0  0  0  0  0  0  0  0  0  0
   -3.8070   13.4220   -0.6010 O   0  0  0  0  0  0  0  0  0  0  0  0
   -2.8460   14.7110    1.2490 C   0  0  2  0  0  0  0  0  0  0  0  0
   -0.4190   14.4010    1.0230 C   0  0  0  0  0  0  0  0  0  0  0  0
   -3.8680   15.5830    1.8210 N   0  0  0  0  0  0  0  0  0  0  0  0
   -1.5280   15.2320    1.5160 N   0  0  0  0  0  0  0  0  0  0  0  0
  1  2  1  0
  2  3  1  0
  1  4  2  0
  1  5  1  1
  1  6  1  0
  6  7  1  0
  7  8  2  0
  7  9  1  6
  7 10  1  0
 11  3  1  1
 10 12  1  0
 11 13  1  0
 11 14  1  0
 14 15  1  1
 14 16  1  0
 13 17  1  0
 16 17  1  0
 18 12  1  1
 16 19  1  6
 18 20  1  0
 18 21  1  0
 17 22  1  1
 20 23  1  6
 21 24  1  0
 20 25  1  0
 24 25  1  0
 22 26  1  0
 22 27  1  0
 24 28  1  1
 25 29  1  6
 26 30  1  0
 26 31  1  1
 27 32  1  0
 30 32  1  0
 30 33  1  1
 30 34  1  0
 31 35  1  0
 34 36  1  6
 34 37  1  0
 35 37  1  0
M  END
>  <%Rank>  (24) 
22.772277

>  <N_hits>  (24) 
2

>  <submitter_name>  (24) 
nan

>  <original SMILES>  (24) 
nan

>  <∆G_unbound>  (24) 
4.981744

>  <∆G_bound>  (24) 
-14.262905

>  <regarded>  (24) 
mArh-5cb5_B_0_B,mArh-x0895_0_A

>  <ref_pdb>  (24) 
nan

>  <smiles>  (24) 
NC1NCNC2N(C3OC(CO[P@@](=O)(O)O[P@@](=O)(O)OCC4OC(O)C(O)C4O)C(O)C3O)CNC12O

>  <submitter_email>  (24) 
nan

>  <disregarded>  (24) 


>  <LE>  (24) 
-0.520126

>  <submitter_institution>  (24) 
nan

>  <ref_mols>  (24) 
mArh-5cb5_B_0_B,mArh-x0895_0_A

>  <N_constrained_atoms>  (24) 
37.0

>  <ref_url>  (24) 
nan

>  <method>  (24) 
nan

>  <comRMSD>  (24) 
0.727758

>  <N_unconstrained_atoms>  (24) 
0.0

>  <∆∆G>  (24) 
-19.244649

>  <runtime>  (24) 
34.910278

>  <generation_date>  (24) 
nan

$$$$
mArh-3ew5_A_0_A-mArh-6fx_7_0A
     RDKit          3D

 39 42  0  0  0  0  0  0  0  0999 V2000
   -0.2590   20.1600   -7.9680 P   0  0  2  0  0  0  0  0  0  0  0  0
   -1.6330   20.6470   -8.6750 O   0  0  0  0  0  0  0  0  0  0  0  0
   -2.7640   21.2400   -8.0400 C   0  0  1  0  0  0  0  0  0  0  0  0
    0.8000   21.2130   -7.9160 O   0  0  0  0  0  0  0  0  0  0  0  0
    0.1190   18.9110   -8.8850 O   0  0  0  0  0  0  0  0  0  0  0  0
   -0.4410   19.4650   -6.5680 O   0  0  0  0  0  0  0  0  0  0  0  0
   -1.5730   18.5440   -5.9750 P   0  0  1  0  0  0  0  0  0  0  0  0
   -2.3580   21.9390   -6.8230 C   0  0  0  0  0  0  0  0  0  0  0  0
   -0.9590   17.0700   -5.7810 O   0  0  0  0  0  0  0  0  0  0  0  0
   -2.2140   19.1390   -4.7820 O   0  0  0  0  0  0  0  0  0  0  0  0
   -2.6300   18.2970   -7.1260 O   0  0  0  0  0  0  0  0  0  0  0  0
   -3.5960   22.2170   -8.8810 C   0  0  2  0  0  0  0  0  0  0  0  0
   -3.0950   23.1570   -6.6430 O   0  0  0  0  0  0  0  0  0  0  0  0
    0.3750   16.9160   -5.2870 C   0  0  0  0  0  0  0  0  0  0  0  0
   -5.0000   22.4700   -8.3310 C   0  0  1  0  0  0  0  0  0  0  0  0
   -3.7410   21.9260  -10.2710 O   0  0  0  0  0  0  0  0  0  0  0  0
    0.5410   15.6360   -4.4430 C   0  0  1  0  0  0  0  0  0  0  0  0
   -4.9310   22.5500  -10.7670 C   0  0  1  0  0  0  0  0  0  0  0  0
   -5.8140   22.8380   -9.5650 C   0  0  2  0  0  0  0  0  0  0  0  0
   -5.6320   21.2590   -7.6570 C   0  0  0  0  0  0  0  0  0  0  0  0
   -4.6490   23.7710  -11.4220 O   0  0  0  0  0  0  0  0  0  0  0  0
   -6.0910   24.2370   -9.5270 O   0  0  0  0  0  0  0  0  0  0  0  0
   -0.2190   15.7830   -3.2340 O   0  0  0  0  0  0  0  0  0  0  0  0
    0.0330   14.3190   -5.0750 C   0  0  1  0  0  0  0  0  0  0  0  0
   -6.0480   21.6030   -6.3430 O   0  0  0  0  0  0  0  0  0  0  0  0
    1.0720   13.4210   -5.4360 O   0  0  0  0  0  0  0  0  0  0  0  0
   -0.8230   13.6860   -3.9720 C   0  0  1  0  0  0  0  0  0  0  0  0
   -1.3860   14.9600   -3.4070 C   0  0  1  0  0  0  0  0  0  0  0  0
   -1.7890   12.7960   -4.5200 O   0  0  0  0  0  0  0  0  0  0  0  0
   -2.1730   15.0030   -2.1880 N   0  0  0  0  0  0  0  0  0  0  0  0
   -1.7630   14.8860   -0.8730 C   0  0  0  0  0  0  0  0  0  0  0  0
   -3.5260   15.2220   -2.1760 C   0  0  0  0  0  0  0  0  0  0  0  0
   -2.9320   15.0890   -0.1450 C   0  0  0  0  0  0  0  0  0  0  0  0
   -0.5350   14.6620   -0.3690 N   0  0  0  0  0  0  0  0  0  0  0  0
   -4.0130   15.2770   -0.9690 N   0  0  0  0  0  0  0  0  0  0  0  0
   -2.8240   15.0840    1.2380 C   0  0  0  0  0  0  0  0  0  0  0  0
   -0.5670   14.6560    0.9830 C   0  0  0  0  0  0  0  0  0  0  0  0
   -3.9220   15.3330    2.0370 N   0  0  0  0  0  0  0  0  0  0  0  0
   -1.6200   14.8490    1.8060 N   0  0  0  0  0  0  0  0  0  0  0  0
  1  2  1  0
  2  3  1  0
  1  4  2  0
  1  5  1  6
  1  6  1  0
  6  7  1  0
  3  8  1  1
  7  9  1  0
  7 10  2  0
  7 11  1  6
  3 12  1  0
  8 13  1  0
  9 14  1  0
 12 15  1  0
 12 16  1  6
 17 14  1  6
 16 18  1  0
 15 19  1  0
 18 19  1  0
 15 20  1  6
 18 21  1  1
 19 22  1  1
 17 23  1  0
 17 24  1  0
 20 25  1  0
 24 26  1  1
 24 27  1  0
 23 28  1  0
 27 28  1  0
 27 29  1  6
 28 30  1  1
 30 31  1  0
 30 32  1  0
 31 33  2  0
 31 34  1  0
 32 35  2  0
 33 35  1  0
 33 36  1  0
 34 37  2  0
 36 38  1  0
 36 39  2  0
 37 39  1  0
M  END
>  <%Rank>  (25) 
23.762376

>  <N_hits>  (25) 
2

>  <submitter_name>  (25) 
nan

>  <original SMILES>  (25) 
nan

>  <∆G_unbound>  (25) 
4.557375

>  <∆G_bound>  (25) 
-13.905521

>  <regarded>  (25) 
mArh-3ew5_A_0_A,mArh-6fx_7_0A

>  <ref_pdb>  (25) 
nan

>  <smiles>  (25) 
Nc1ncnc2c1ncn2C1OC(CO[P@](=O)(O)OP(=O)(O)OC(CO)C2OC(O)C(O)C2CO)C(O)C1O

>  <submitter_email>  (25) 
nan

>  <disregarded>  (25) 


>  <LE>  (25) 
-0.473408

>  <submitter_institution>  (25) 
nan

>  <ref_mols>  (25) 
mArh-3ew5_A_0_A,mArh-6fx_7_0A

>  <N_constrained_atoms>  (25) 
38.0

>  <ref_url>  (25) 
nan

>  <method>  (25) 
nan

>  <comRMSD>  (25) 
0.711271

>  <N_unconstrained_atoms>  (25) 
1.0

>  <∆∆G>  (25) 
-18.462896

>  <runtime>  (25) 
61.768334

>  <generation_date>  (25) 
nan

$$$$
mArh-5cb5_O_0_O-mArh-1hjz_B_0_B
     RDKit          3D

 38 41  0  0  0  0  0  0  0  0999 V2000
   -1.5490   18.2210   -6.2210 P   0  0  1  0  0  0  0  0  0  0  0  0
   -0.7780   16.8650   -5.8090 O   0  0  0  0  0  0  0  0  0  0  0  0
    0.5460   16.9630   -5.2620 C   0  0  0  0  0  0  0  0  0  0  0  0
   -2.4430   18.0990   -7.4070 O   0  0  0  0  0  0  0  0  0  0  0  0
   -2.4860   18.4010   -5.0760 O   0  0  0  0  0  0  0  0  0  0  0  0
   -0.6830   19.5650   -6.3800 O   0  0  0  0  0  0  0  0  0  0  0  0
   -0.3660   19.8160   -8.1240 P   0  0  0  0  0  0  0  0  0  0  0  0
    0.9500   20.9470   -8.2150 N   0  0  0  0  0  0  0  0  0  0  0  0
   -0.0880   18.5480   -8.7820 O   0  0  0  0  0  0  0  0  0  0  0  0
   -1.7630   20.4800   -8.8270 O   0  0  0  0  0  0  0  0  0  0  0  0
    0.8590   15.7270   -4.4490 C   0  0  1  0  0  0  0  0  0  0  0  0
   -1.9910   21.7580   -8.5690 C   0  0  2  0  0  0  0  0  0  0  0  0
    1.0800   21.8750   -7.5420 O   0  0  0  0  0  0  0  0  0  0  0  0
    0.2750   15.6820   -3.1410 O   0  0  0  0  0  0  0  0  0  0  0  0
    0.1320   14.5460   -5.0760 C   0  0  1  0  0  0  0  0  0  0  0  0
    0.9990   13.4550   -4.9600 O   0  0  0  0  0  0  0  0  0  0  0  0
   -1.8860   22.0500   -7.0970 C   0  0  0  0  0  0  0  0  0  0  0  0
   -0.9710   14.2550   -4.4000 C   0  0  2  0  0  0  0  0  0  0  0  0
   -1.1050   15.4200   -3.4330 C   0  0  1  0  0  0  0  0  0  0  0  0
   -3.3990   22.1270   -8.9670 C   0  0  2  0  0  0  0  0  0  0  0  0
   -0.7530   13.0190   -3.7970 O   0  0  0  0  0  0  0  0  0  0  0  0
   -3.7920   23.4790   -8.5400 C   0  0  1  0  0  0  0  0  0  0  0  0
   -4.3620   21.2760   -8.5430 O   0  0  0  0  0  0  0  0  0  0  0  0
   -1.9260   15.2650   -2.2640 N   0  0  0  0  0  0  0  0  0  0  0  0
   -4.6700   24.0540   -9.4840 O   0  0  0  0  0  0  0  0  0  0  0  0
   -4.7480   21.7230   -7.2990 C   0  0  1  0  0  0  0  0  0  0  0  0
   -4.5850   23.2040   -7.2570 C   0  0  2  0  0  0  0  0  0  0  0  0
   -1.5380   15.1970   -0.9330 C   0  0  0  0  0  0  0  0  0  0  0  0
   -3.2530   15.2110   -2.2690 C   0  0  0  0  0  0  0  0  0  0  0  0
   -6.0520   21.3750   -6.9340 O   0  0  0  0  0  0  0  0  0  0  0  0
   -5.8290   23.8810   -7.2920 O   0  0  0  0  0  0  0  0  0  0  0  0
   -2.6860   15.1320   -0.1880 C   0  0  0  0  0  0  0  0  0  0  0  0
   -0.3340   15.1980   -0.3130 N   0  0  0  0  0  0  0  0  0  0  0  0
   -3.7480   15.1390   -1.0080 N   0  0  0  0  0  0  0  0  0  0  0  0
   -2.6060   15.0810    1.1860 C   0  0  0  0  0  0  0  0  0  0  0  0
   -0.2710   15.1250    1.0270 C   0  0  0  0  0  0  0  0  0  0  0  0
   -3.8720   15.0640    1.8440 N   0  0  0  0  0  0  0  0  0  0  0  0
   -1.4140   15.0650    1.7660 N   0  0  0  0  0  0  0  0  0  0  0  0
  1  2  1  0
  2  3  1  0
  1  4  2  0
  1  5  1  1
  1  6  1  0
  6  7  1  0
  7  8  1  0
  7  9  1  0
  7 10  1  0
 11  3  1  6
 10 12  1  0
  8 13  2  0
 11 14  1  0
 11 15  1  0
 15 16  1  1
 12 17  1  1
 15 18  1  0
 14 19  1  0
 18 19  1  0
 12 20  1  0
 18 21  1  1
 20 22  1  0
 20 23  1  1
 19 24  1  1
 22 25  1  6
 23 26  1  0
 22 27  1  0
 26 27  1  0
 24 28  1  0
 24 29  1  0
 26 30  1  6
 27 31  1  6
 28 32  2  0
 28 33  1  0
 29 34  2  0
 32 34  1  0
 32 35  1  0
 33 36  2  0
 35 37  1  0
 35 38  2  0
 36 38  1  0
M  END
>  <%Rank>  (26) 
24.752475

>  <N_hits>  (26) 
2

>  <submitter_name>  (26) 
nan

>  <original SMILES>  (26) 
nan

>  <∆G_unbound>  (26) 
4.62529

>  <∆G_bound>  (26) 
-3.55255

>  <regarded>  (26) 
mArh-5cb5_O_0_O,mArh-1hjz_B_0_B

>  <ref_pdb>  (26) 
nan

>  <smiles>  (26) 
CC(O[PH](O)(N=O)O[P@](=O)(O)OCC1OC(n2cnc3c(N)ncnc32)C(O)C1O)C1OC(O)C(O)C1O

>  <submitter_email>  (26) 
nan

>  <disregarded>  (26) 


>  <LE>  (26) 
-0.215206

>  <submitter_institution>  (26) 
nan

>  <ref_mols>  (26) 
mArh-5cb5_O_0_O,mArh-1hjz_B_0_B

>  <N_constrained_atoms>  (26) 
38.0

>  <ref_url>  (26) 
nan

>  <method>  (26) 
nan

>  <comRMSD>  (26) 
0.600375

>  <N_unconstrained_atoms>  (26) 
0.0

>  <∆∆G>  (26) 
-8.17784

>  <runtime>  (26) 
40.96645

>  <generation_date>  (26) 
nan

$$$$
mArh-5cb5_R_0_R-mArh-x0962_0_A
     RDKit          3D

 42 46  0  0  0  0  0  0  0  0999 V2000
   -1.4250   18.1350   -6.1040 P   0  0  1  0  0  0  0  0  0  0  0  0
   -0.2400   17.0870   -5.9060 O   0  0  0  0  0  0  0  0  0  0  0  0
    0.5440   17.1800   -4.7250 C   0  0  0  0  0  0  0  0  0  0  0  0
   -2.5860   17.6710   -6.8960 O   0  0  0  0  0  0  0  0  0  0  0  0
   -1.8520   18.5090   -4.6220 O   0  0  0  0  0  0  0  0  0  0  0  0
   -0.7970   19.5110   -6.4960 O   0  0  0  0  0  0  0  0  0  0  0  0
   -0.1650   19.9450   -7.8580 P   0  0  1  0  0  0  0  0  0  0  0  0
    1.0470   20.8150   -7.6870 O   0  0  0  0  0  0  0  0  0  0  0  0
    0.1160   18.6140   -8.7050 O   0  0  0  0  0  0  0  0  0  0  0  0
   -1.3510   20.5930   -8.7010 O   0  0  0  0  0  0  0  0  0  0  0  0
    0.8620   15.7910   -4.1220 C   0  0  1  0  0  0  0  0  0  0  0  0
   -2.0980   21.5840   -8.0210 C   0  0  0  0  0  0  0  0  0  0  0  0
    0.1050   15.5710   -2.8990 O   0  0  0  0  0  0  0  0  0  0  0  0
    0.5020   14.6120   -5.0160 C   0  0  1  0  0  0  0  0  0  0  0  0
    1.4380   13.5410   -4.8190 O   0  0  0  0  0  0  0  0  0  0  0  0
   -0.8740   14.1500   -4.5490 C   0  0  2  0  0  0  0  0  0  0  0  0
   -1.1470   14.9360   -3.2380 C   0  0  1  0  0  0  0  0  0  0  0  0
   -3.4190   21.8800   -8.7240 C   0  0  2  0  0  0  0  0  0  0  0  0
   -0.8700   12.7220   -4.4420 O   0  0  0  0  0  0  0  0  0  0  0  0
   -3.8680   23.3110   -8.4570 C   0  0  1  0  0  0  0  0  0  0  0  0
   -4.4790   21.0370   -8.2380 O   0  0  0  0  0  0  0  0  0  0  0  0
   -1.7890   14.1570   -2.1560 N   0  0  0  0  0  0  0  0  0  0  0  0
   -4.7350   23.8620   -9.4390 O   0  0  0  0  0  0  0  0  0  0  0  0
   -5.2230   21.7750   -7.2650 C   0  0  2  0  0  0  0  0  0  0  0  0
   -4.5300   23.1310   -7.0930 C   0  0  2  0  0  0  0  0  0  0  0  0
   -1.4240   14.3120   -0.7530 C   0  0  2  0  0  0  0  0  0  0  0  0
   -3.2400   14.3870   -2.0760 C   0  0  1  0  0  0  0  0  0  0  0  0
   -5.1980   21.0760   -6.0340 O   0  0  0  0  0  0  0  0  0  0  0  0
   -5.4590   24.1540   -6.7200 O   0  0  0  0  0  0  0  0  0  0  0  0
   -2.5380   15.0170    0.0200 C   0  0  1  0  0  0  0  0  0  0  0  0
   -0.2140   14.9580   -0.4280 N   0  0  0  0  0  0  0  0  0  0  0  0
   -3.6440   15.1410   -0.8780 N   0  0  0  0  0  0  0  0  0  0  0  0
   -3.4670   15.0030   -3.3370 N   0  0  0  0  0  0  0  0  0  0  0  0
   -2.5210   14.2850    1.2880 C   0  0  2  0  0  0  0  0  0  0  0  0
    0.0020   14.5860    0.9620 C   0  0  0  0  0  0  0  0  0  0  0  0
   -4.7810   14.9770   -0.2380 C   0  0  0  0  0  0  0  0  0  0  0  0
   -3.3180   14.9530    2.2800 N   0  0  0  0  0  0  0  0  0  0  0  0
   -1.1690   14.4110    1.8310 N   0  0  0  0  0  0  0  0  0  0  0  0
   -4.7290   15.0490    1.1210 N   0  0  0  0  0  0  0  0  0  0  0  0
   -6.0910   14.7370   -0.5190 C   0  0  0  0  0  0  0  0  0  0  0  0
   -5.9650   14.8490    1.6090 C   0  0  0  0  0  0  0  0  0  0  0  0
   -6.8240   14.6560    0.6410 N   0  0  0  0  0  0  0  0  0  0  0  0
  1  2  1  0
  2  3  1  0
  1  4  2  0
  1  5  1  1
  1  6  1  0
  6  7  1  0
  7  8  2  0
  7  9  1  6
  7 10  1  0
 11  3  1  6
 10 12  1  0
 11 13  1  0
 11 14  1  0
 14 15  1  1
 14 16  1  0
 13 17  1  0
 16 17  1  0
 18 12  1  1
 16 19  1  1
 18 20  1  0
 18 21  1  0
 17 22  1  1
 20 23  1  6
 21 24  1  0
 20 25  1  0
 24 25  1  0
 22 26  1  0
 22 27  1  0
 24 28  1  1
 25 29  1  6
 26 30  1  0
 26 31  1  6
 27 32  1  0
 30 32  1  6
 27 33  1  6
 30 34  1  0
 31 35  1  0
 32 36  1  0
 34 37  1  1
 34 38  1  0
 35 38  1  0
 36 39  1  0
 36 40  2  0
 39 41  1  0
 40 42  1  0
 41 42  2  0
M  END
>  <%Rank>  (27) 
25.742574

>  <N_hits>  (27) 
2

>  <submitter_name>  (27) 
nan

>  <original SMILES>  (27) 
nan

>  <∆G_unbound>  (27) 
5.026375

>  <∆G_bound>  (27) 
-8.440956

>  <regarded>  (27) 
mArh-5cb5_R_0_R,mArh-x0962_0_A

>  <ref_pdb>  (27) 
nan

>  <smiles>  (27) 
NC1NCNC2C1N(c1cnc[nH]1)C(N)N2C1OC(CO[P@@](=O)(O)O[P@@](=O)(O)OCC2OC(O)C(O)C2O)C(O)C1O

>  <submitter_email>  (27) 
nan

>  <disregarded>  (27) 


>  <LE>  (27) 
-0.320651

>  <submitter_institution>  (27) 
nan

>  <ref_mols>  (27) 
mArh-5cb5_R_0_R,mArh-x0962_0_A

>  <N_constrained_atoms>  (27) 
42.0

>  <ref_url>  (27) 
nan

>  <method>  (27) 
nan

>  <comRMSD>  (27) 
0.696345

>  <N_unconstrained_atoms>  (27) 
0.0

>  <∆∆G>  (27) 
-13.467331

>  <runtime>  (27) 
71.420957

>  <generation_date>  (27) 
nan

$$$$
mArh-4iqy_A_0_A-mArh-x0852_0_B
     RDKit          3D

 49 53  0  0  0  0  0  0  0  0999 V2000
   -1.4400   18.0640   -5.9440 P   0  0  2  0  0  0  0  0  0  0  0  0
   -0.0620   17.3280   -6.2870 O   0  0  0  0  0  0  0  0  0  0  0  0
    0.7190   16.7390   -5.2550 C   0  0  0  0  0  0  0  0  0  0  0  0
   -1.8900   18.0690   -4.5450 O   0  0  0  0  0  0  0  0  0  0  0  0
   -2.5280   17.3630   -6.8760 O   0  0  0  0  0  0  0  0  0  0  0  0
   -1.2840   19.4930   -6.5550 O   0  0  0  0  0  0  0  0  0  0  0  0
   -0.4170   19.8480   -7.8350 P   0  0  1  0  0  0  0  0  0  0  0  0
    0.8500   20.5740   -7.5720 O   0  0  0  0  0  0  0  0  0  0  0  0
   -0.2280   18.5170   -8.7000 O   0  0  0  0  0  0  0  0  0  0  0  0
   -1.4780   20.6400   -8.7000 O   0  0  0  0  0  0  0  0  0  0  0  0
   -0.1050   15.6130   -4.6540 C   0  0  2  0  0  0  0  0  0  0  0  0
   -2.1660   21.6560   -7.9960 C   0  0  0  0  0  0  0  0  0  0  0  0
   -0.2750   15.6900   -3.2470 O   0  0  0  0  0  0  0  0  0  0  0  0
    0.2650   14.1440   -4.8510 C   0  0  1  0  0  0  0  0  0  0  0  0
    1.5670   13.8280   -4.3140 O   0  0  0  0  0  0  0  0  0  0  0  0
   -0.7870   13.4840   -3.9360 C   0  0  2  0  0  0  0  0  0  0  0  0
   -1.3330   14.7280   -3.2100 C   0  0  1  0  0  0  0  0  0  0  0  0
   -3.5900   21.8330   -8.5090 C   0  0  2  0  0  0  0  0  0  0  0  0
   -0.1890   12.5020   -3.0970 O   0  0  0  0  0  0  0  0  0  0  0  0
   -4.1210   23.2560   -8.3240 C   0  0  1  0  0  0  0  0  0  0  0  0
   -4.4510   20.9080   -7.8140 O   0  0  0  0  0  0  0  0  0  0  0  0
   -2.1140   14.8180   -1.9910 N   0  0  0  0  0  0  0  0  0  0  0  0
   -4.4330   23.9540   -9.5200 O   0  0  0  0  0  0  0  0  0  0  0  0
   -5.5720   21.6040   -7.2720 C   0  0  1  0  0  0  0  0  0  0  0  0
   -5.4210   23.1050   -7.5480 C   0  0  1  0  0  0  0  0  0  0  0  0
   -1.8510   14.7630   -0.6460 C   0  0  0  0  0  0  0  0  0  0  0  0
   -3.4650   15.0280   -2.1300 C   0  0  0  0  0  0  0  0  0  0  0  0
   -6.7200   21.0830   -7.9470 O   0  0  0  0  0  0  0  0  0  0  0  0
   -5.5080   23.9570   -6.4090 O   0  0  0  0  0  0  0  0  0  0  0  0
   -3.1170   14.9580   -0.0620 C   0  0  0  0  0  0  0  0  0  0  0  0
   -0.6900   14.5810   -0.0020 N   0  0  0  0  0  0  0  0  0  0  0  0
   -4.0920   15.1180   -0.9970 N   0  0  0  0  0  0  0  0  0  0  0  0
   -3.2320   14.9700    1.3190 C   0  0  0  0  0  0  0  0  0  0  0  0
   -0.8830   14.5940    1.3250 C   0  0  0  0  0  0  0  0  0  0  0  0
   -4.4970   15.1940    1.9750 N   0  0  0  0  0  0  0  0  0  0  0  0
   -2.0550   14.7670    1.9960 N   0  0  0  0  0  0  0  0  0  0  0  0
   -5.8890   14.7070    1.5900 C   0  0  0  0  0  0  0  0  0  0  0  0
   -6.4500   13.2850    2.0460 C   0  0  0  0  0  0  0  0  0  0  0  0
   -7.2030   13.0280    3.4670 C   0  0  0  0  0  0  0  0  0  0  0  0
   -7.5080   14.1290    4.4200 O   0  0  0  0  0  0  0  0  0  0  0  0
   -8.3100   14.9920    3.8160 C   0  0  0  0  0  0  0  0  0  0  0  0
   -8.4510   14.7050    2.4890 C   0  0  0  0  0  0  0  0  0  0  0  0
   -8.9880   16.1060    4.3920 C   0  0  0  0  0  0  0  0  0  0  0  0
   -8.9830   16.5440    5.7750 C   0  0  0  0  0  0  0  0  0  0  0  0
   -9.2180   15.4460    1.6650 C   0  0  0  0  0  0  0  0  0  0  0  0
   -9.7680   16.8740    3.5240 C   0  0  0  0  0  0  0  0  0  0  0  0
   -9.1280   16.9060    6.8760 N   0  0  0  0  0  0  0  0  0  0  0  0
   -9.8750   16.5230    2.1570 C   0  0  0  0  0  0  0  0  0  0  0  0
  -10.8900   17.4370    0.8530 Br  0  0  0  0  0  0  0  0  0  0  0  0
  1  2  1  0
  2  3  1  0
  1  4  2  0
  1  5  1  6
  1  6  1  0
  6  7  1  0
  7  8  2  0
  7  9  1  6
  7 10  1  0
 11  3  1  1
 10 12  1  0
 11 13  1  0
 11 14  1  0
 14 15  1  1
 14 16  1  0
 13 17  1  0
 16 17  1  0
 18 12  1  1
 16 19  1  1
 18 20  1  0
 18 21  1  0
 17 22  1  1
 20 23  1  6
 21 24  1  0
 20 25  1  0
 24 25  1  0
 22 26  1  0
 22 27  1  0
 24 28  1  6
 25 29  1  1
 26 30  2  0
 26 31  1  0
 27 32  2  0
 30 32  1  0
 30 33  1  0
 31 34  2  0
 33 35  1  0
 33 36  2  0
 34 36  1  0
 35 37  1  0
 37 38  1  0
 38 39  1  0
 39 40  1  0
 40 41  1  0
 41 42  2  0
 41 43  1  0
 43 44  1  0
 42 45  1  0
 43 46  2  0
 44 47  3  0
 45 48  2  0
 46 48  1  0
 48 49  1  0
M  END
>  <%Rank>  (28) 
26.732673

>  <N_hits>  (28) 
2

>  <submitter_name>  (28) 
nan

>  <original SMILES>  (28) 
nan

>  <∆G_unbound>  (28) 
7.645433

>  <∆G_bound>  (28) 
-16.392051

>  <regarded>  (28) 
mArh-4iqy_A_0_A,mArh-x0852_0_B

>  <ref_pdb>  (28) 
nan

>  <smiles>  (28) 
N#Cc1cc(Br)ccc1OCCCNc1ncnc2c1ncn2C1OC(CO[P@](=O)(O)O[P@@](=O)(O)OCC2OC(O)C(O)C2O)C(O)C1O

>  <submitter_email>  (28) 
nan

>  <disregarded>  (28) 


>  <LE>  (28) 
-0.490561

>  <submitter_institution>  (28) 
nan

>  <ref_mols>  (28) 
mArh-4iqy_A_0_A,mArh-x0852_0_B

>  <N_constrained_atoms>  (28) 
46.0

>  <ref_url>  (28) 
nan

>  <method>  (28) 
nan

>  <comRMSD>  (28) 
0.781446

>  <N_unconstrained_atoms>  (28) 
3.0

>  <∆∆G>  (28) 
-24.037484

>  <runtime>  (28) 
78.127595

>  <generation_date>  (28) 
nan

$$$$
mArh-x0967_0_A-mArh-5fud_B_0_B
     RDKit          3D

 27 29  0  0  0  0  0  0  0  0999 V2000
   -0.7640   19.0350   -6.4260 N   0  0  0  0  0  0  0  0  0  0  0  0
   -0.3780   19.7640   -7.9100 S   0  0  1  0  0  0  0  0  0  0  0  0
    0.6580   20.7460   -7.6910 O   0  0  0  0  0  0  0  0  0  0  0  0
    0.3000   18.2380   -5.7660 C   0  0  0  0  0  0  0  0  0  0  0  0
   -0.1740   18.6710   -8.8610 O   0  0  0  0  0  0  0  0  0  0  0  0
   -1.9070   20.6300   -8.2690 C   0  0  0  0  0  0  0  0  0  0  0  0
   -0.1370   17.7160   -4.3830 C   0  0  0  0  0  0  0  0  0  0  0  0
   -2.1190   22.0400   -7.7750 C   0  0  0  0  0  0  0  0  0  0  0  0
   -1.3850   16.8060   -4.3660 C   0  0  0  0  0  0  0  0  0  0  0  0
   -1.5720   15.9010   -3.1190 C   0  0  0  0  0  0  0  0  0  0  0  0
   -3.5800   22.3650   -7.8390 N   0  0  0  0  0  0  0  0  0  0  0  0
   -2.9940   15.3170   -3.0520 C   0  0  0  0  0  0  0  0  0  0  0  0
   -4.0800   22.6060   -9.0630 C   0  0  0  0  0  0  0  0  0  0  0  0
   -3.8930   23.5600   -7.0400 C   0  0  0  0  0  0  0  0  0  0  0  0
   -3.6540   15.2220   -1.7180 C   0  0  0  0  0  0  0  0  0  0  0  0
   -5.6190   22.7770   -9.0930 C   0  0  0  0  0  0  0  0  0  0  0  0
   -5.3940   23.7890   -6.9390 C   0  0  0  0  0  0  0  0  0  0  0  0
   -4.9890   14.9620   -1.7620 N   0  0  0  0  0  0  0  0  0  0  0  0
   -2.9440   15.3870   -0.5210 C   0  0  0  0  0  0  0  0  0  0  0  0
   -6.0530   23.8320   -8.2260 O   0  0  0  0  0  0  0  0  0  0  0  0
   -5.6930   14.8470   -0.6410 C   0  0  0  0  0  0  0  0  0  0  0  0
   -3.6320   15.2770    0.6910 C   0  0  0  0  0  0  0  0  0  0  0  0
   -7.0080   14.5890   -0.7260 N   0  0  0  0  0  0  0  0  0  0  0  0
   -5.0050   15.0070    0.6750 C   0  0  0  0  0  0  0  0  0  0  0  0
   -5.7730   14.8770    1.8340 C   0  0  0  0  0  0  0  0  0  0  0  0
   -7.7490   14.4640    0.4050 C   0  0  0  0  0  0  0  0  0  0  0  0
   -7.2500   14.5830    1.6920 C   0  0  0  0  0  0  0  0  0  0  0  0
  1  2  2  0
  2  3  2  0
  1  4  1  0
  2  5  1  6
  2  6  1  0
  4  7  1  0
  6  8  1  0
  7  9  1  0
  9 10  1  0
  8 11  1  0
 10 12  1  0
 11 13  1  0
 11 14  1  0
 12 15  1  0
 13 16  1  0
 14 17  1  0
 15 18  2  0
 15 19  1  0
 16 20  1  0
 17 20  1  0
 18 21  1  0
 19 22  2  0
 21 23  2  0
 21 24  1  0
 22 24  1  0
 24 25  2  0
 23 26  1  0
 25 27  1  0
 26 27  2  0
M  CHG  1   5  -1
M  END
>  <%Rank>  (29) 
27.722772

>  <N_hits>  (29) 
2

>  <submitter_name>  (29) 
nan

>  <original SMILES>  (29) 
nan

>  <∆G_unbound>  (29) 
0.553763

>  <∆G_bound>  (29) 
-18.153302

>  <regarded>  (29) 
mArh-x0967_0_A,mArh-5fud_B_0_B

>  <ref_pdb>  (29) 
nan

>  <smiles>  (29) 
O=S([O-])(CCN1CCOCC1)=NCCCCCc1ccc2cccnc2n1

>  <submitter_email>  (29) 
nan

>  <disregarded>  (29) 


>  <LE>  (29) 
-0.692854

>  <submitter_institution>  (29) 
nan

>  <ref_mols>  (29) 
mArh-x0967_0_A,mArh-5fud_B_0_B

>  <N_constrained_atoms>  (29) 
22.0

>  <ref_url>  (29) 
nan

>  <method>  (29) 
nan

>  <comRMSD>  (29) 
0.551435

>  <N_unconstrained_atoms>  (29) 
5.0

>  <∆∆G>  (29) 
-18.707065

>  <runtime>  (29) 
33.613047

>  <generation_date>  (29) 
nan

$$$$
mArh-x0950_0_A-mArh-5cms_L_11_L
     RDKit          3D

 40 43  0  0  0  0  0  0  0  0999 V2000
    1.4250   13.6650   -3.9580 C   0  0  0  0  0  0  0  0  0  0  0  0
    1.5650   12.2000   -4.0110 C   0  0  2  0  0  0  0  0  0  0  0  0
    0.8940   11.7120   -5.1680 O   0  0  0  0  0  0  0  0  0  0  0  0
   -0.0160   14.0100   -4.2340 C   0  0  2  0  0  0  0  0  0  0  0  0
    0.9600   11.6270   -2.7300 C   0  0  0  0  0  0  0  0  0  0  0  0
    0.1350   14.9400   -5.3870 C   0  0  0  0  0  0  0  0  0  0  0  0
   -0.6370   15.0870   -3.4100 C   0  0  2  0  0  0  0  0  0  0  0  0
    0.3050   10.5990   -2.5570 O   0  0  0  0  0  0  0  0  0  0  0  0
    1.2380   12.4530   -1.7090 O   0  0  0  0  0  0  0  0  0  0  0  0
    0.4520   16.0170   -3.3100 O   0  0  0  0  0  0  0  0  0  0  0  0
    0.8980   16.0750   -4.6940 C   0  0  2  0  0  0  0  0  0  0  0  0
   -1.5110   14.9710   -2.2800 N   0  0  0  0  0  0  0  0  0  0  0  0
    0.5880   17.4380   -5.2750 C   0  0  0  0  0  0  0  0  0  0  0  0
   -1.2230   14.8650   -0.9310 C   0  0  0  0  0  0  0  0  0  0  0  0
   -2.8680   14.9870   -2.4130 C   0  0  0  0  0  0  0  0  0  0  0  0
   -0.4810   17.2360   -6.1670 O   0  0  0  0  0  0  0  0  0  0  0  0
   -2.4840   14.8590   -0.3370 C   0  0  0  0  0  0  0  0  0  0  0  0
   -0.0430   14.8050   -0.2880 N   0  0  0  0  0  0  0  0  0  0  0  0
   -3.4870   14.9200   -1.2680 N   0  0  0  0  0  0  0  0  0  0  0  0
   -1.7860   18.1240   -6.0850 P   0  0  1  0  0  0  0  0  0  0  0  0
   -2.5490   14.8080    1.0540 C   0  0  0  0  0  0  0  0  0  0  0  0
   -0.2520   14.7480    1.0540 C   0  0  0  0  0  0  0  0  0  0  0  0
   -2.9600   17.4790   -6.6810 O   0  0  0  0  0  0  0  0  0  0  0  0
   -1.9160   18.4760   -4.5370 O   0  0  0  0  0  0  0  0  0  0  0  0
   -1.3690   19.5060   -6.6830 O   0  0  0  0  0  0  0  0  0  0  0  0
   -3.7650   14.8400    1.7110 N   0  0  0  0  0  0  0  0  0  0  0  0
   -1.4070   14.7450    1.7510 N   0  0  0  0  0  0  0  0  0  0  0  0
   -0.2340   19.6260   -7.7670 P   0  0  1  0  0  0  0  0  0  0  0  0
    1.0610   20.2320   -7.3910 O   0  0  0  0  0  0  0  0  0  0  0  0
   -0.1540   18.2290   -8.5120 O   0  0  0  0  0  0  0  0  0  0  0  0
   -0.9610   20.2780   -9.0020 O   0  0  0  0  0  0  0  0  0  0  0  0
   -1.0830   21.6800   -9.0100 C   0  0  0  0  0  0  0  0  0  0  0  0
   -1.9830   22.0570  -10.1770 C   0  0  2  0  0  0  0  0  0  0  0  0
   -1.9070   23.5460  -10.4810 C   0  0  1  0  0  0  0  0  0  0  0  0
   -3.3540   21.7750   -9.7990 O   0  0  0  0  0  0  0  0  0  0  0  0
   -0.9760   23.7720  -11.5460 O   0  0  0  0  0  0  0  0  0  0  0  0
   -4.1470   22.9180  -10.0930 C   0  0  2  0  0  0  0  0  0  0  0  0
   -3.3080   23.8230  -10.9930 C   0  0  2  0  0  0  0  0  0  0  0  0
   -4.4830   23.5970   -8.8820 O   0  0  0  0  0  0  0  0  0  0  0  0
   -3.4210   23.5510  -12.3750 O   0  0  0  0  0  0  0  0  0  0  0  0
  1  2  1  0
  2  3  1  6
  4  1  1  1
  2  5  1  0
  4  6  1  0
  4  7  1  0
  5  8  2  0
  5  9  1  0
  7 10  1  0
  6 11  1  0
 10 11  1  0
  7 12  1  1
 11 13  1  6
 12 14  1  0
 12 15  1  0
 13 16  1  0
 14 17  2  0
 14 18  1  0
 15 19  2  0
 17 19  1  0
 16 20  1  0
 17 21  1  0
 18 22  2  0
 20 23  2  0
 20 24  1  1
 20 25  1  0
 21 26  1  0
 21 27  2  0
 22 27  1  0
 25 28  1  0
 28 29  2  0
 28 30  1  6
 28 31  1  0
 31 32  1  0
 33 32  1  1
 33 34  1  0
 33 35  1  0
 34 36  1  6
 35 37  1  0
 34 38  1  0
 37 38  1  0
 37 39  1  1
 38 40  1  6
M  END
>  <%Rank>  (30) 
28.712871

>  <N_hits>  (30) 
2

>  <submitter_name>  (30) 
nan

>  <original SMILES>  (30) 
nan

>  <∆G_unbound>  (30) 
3.417032

>  <∆G_bound>  (30) 
-10.382185

>  <regarded>  (30) 
mArh-x0950_0_A,mArh-5cms_L_11_L

>  <ref_pdb>  (30) 
nan

>  <smiles>  (30) 
Nc1ncnc2c1ncn2C1OC(CO[P@@](=O)(O)O[P@@](=O)(O)OCC2OC(O)C(O)C2O)CC1C[C@H](O)C(=O)O

>  <submitter_email>  (30) 
nan

>  <disregarded>  (30) 


>  <LE>  (30) 
-0.34498

>  <submitter_institution>  (30) 
nan

>  <ref_mols>  (30) 
mArh-x0950_0_A,mArh-5cms_L_11_L

>  <N_constrained_atoms>  (30) 
40.0

>  <ref_url>  (30) 
nan

>  <method>  (30) 
nan

>  <comRMSD>  (30) 
0.717876

>  <N_unconstrained_atoms>  (30) 
0.0

>  <∆∆G>  (30) 
-13.799217

>  <runtime>  (30) 
48.127935

>  <generation_date>  (30) 
nan

$$$$
mArh-5cms_H_7_H-mArh-5cms_D_3_D
     RDKit          3D

 36 39  0  0  0  0  0  0  0  0999 V2000
   -1.8440   17.8330   -6.0860 P   0  0  1  0  0  0  0  0  0  0  0  0
   -0.3160   17.3290   -6.2840 O   0  0  0  0  0  0  0  0  0  0  0  0
    0.5300   16.7760   -5.2780 C   0  0  0  0  0  0  0  0  0  0  0  0
   -2.9200   16.7910   -6.1930 O   0  0  0  0  0  0  0  0  0  0  0  0
   -1.8600   18.7990   -4.8240 O   0  0  0  0  0  0  0  0  0  0  0  0
   -1.8370   18.7810   -7.3160 O   0  0  0  0  0  0  0  0  0  0  0  0
   -0.4000   19.3760   -7.6610 P   0  0  1  0  0  0  0  0  0  0  0  0
    0.6320   19.2230   -6.6030 O   0  0  0  0  0  0  0  0  0  0  0  0
    0.0340   18.5500   -8.9400 O   0  0  0  0  0  0  0  0  0  0  0  0
   -0.5320   20.8650   -8.1870 O   0  0  0  0  0  0  0  0  0  0  0  0
   -0.2430   15.6250   -4.6790 C   0  0  2  0  0  0  0  0  0  0  0  0
   -1.7730   21.4480   -8.5260 C   0  0  0  0  0  0  0  0  0  0  0  0
   -0.1350   15.5220   -3.2920 O   0  0  0  0  0  0  0  0  0  0  0  0
   -0.0190   14.1600   -5.0900 C   0  0  1  0  0  0  0  0  0  0  0  0
    1.2830   13.6330   -4.8660 O   0  0  0  0  0  0  0  0  0  0  0  0
   -1.0330   13.5300   -4.1030 C   0  0  2  0  0  0  0  0  0  0  0  0
   -1.3310   14.7810   -3.2620 C   0  0  1  0  0  0  0  0  0  0  0  0
   -1.6540   22.0120   -9.9270 C   0  0  2  0  0  0  0  0  0  0  0  0
   -0.5560   12.3730   -3.4550 O   0  0  0  0  0  0  0  0  0  0  0  0
   -0.6610   23.1780   -9.9490 C   0  0  1  0  0  0  0  0  0  0  0  0
   -2.9410   22.4520  -10.3960 O   0  0  0  0  0  0  0  0  0  0  0  0
   -2.0160   14.8710   -2.0020 N   0  0  0  0  0  0  0  0  0  0  0  0
    0.6100   22.9620  -10.5540 O   0  0  0  0  0  0  0  0  0  0  0  0
   -2.7340   23.6520  -11.1100 C   0  0  2  0  0  0  0  0  0  0  0  0
   -1.3960   24.2890  -10.6410 C   0  0  2  0  0  0  0  0  0  0  0  0
   -1.6030   14.7950   -0.6950 C   0  0  0  0  0  0  0  0  0  0  0  0
   -3.3580   15.1190   -2.0040 C   0  0  0  0  0  0  0  0  0  0  0  0
   -3.8720   24.4660  -10.8720 O   0  0  0  0  0  0  0  0  0  0  0  0
   -0.6580   24.8400  -11.7120 O   0  0  0  0  0  0  0  0  0  0  0  0
   -2.7710   15.0430    0.0100 C   0  0  0  0  0  0  0  0  0  0  0  0
   -0.3880   14.5690   -0.1650 N   0  0  0  0  0  0  0  0  0  0  0  0
   -3.8490   15.2270   -0.8130 N   0  0  0  0  0  0  0  0  0  0  0  0
   -2.6930   15.0830    1.3770 C   0  0  0  0  0  0  0  0  0  0  0  0
   -0.4460   14.6090    1.1780 C   0  0  0  0  0  0  0  0  0  0  0  0
   -3.8040   15.3790    2.1260 N   0  0  0  0  0  0  0  0  0  0  0  0
   -1.5110   14.8460    1.9670 N   0  0  0  0  0  0  0  0  0  0  0  0
  1  2  1  0
  2  3  1  0
  1  4  2  0
  1  5  1  1
  1  6  1  0
  6  7  1  0
  7  8  2  0
  7  9  1  6
  7 10  1  0
 11  3  1  6
 10 12  1  0
 11 13  1  0
 11 14  1  0
 14 15  1  1
 14 16  1  0
 13 17  1  0
 16 17  1  0
 18 12  1  1
 16 19  1  1
 18 20  1  0
 18 21  1  0
 17 22  1  1
 20 23  1  6
 21 24  1  0
 20 25  1  0
 24 25  1  0
 22 26  1  0
 22 27  1  0
 24 28  1  1
 25 29  1  6
 26 30  2  0
 26 31  1  0
 27 32  2  0
 30 32  1  0
 30 33  1  0
 31 34  2  0
 33 35  1  0
 33 36  2  0
 34 36  1  0
M  END
>  <%Rank>  (31) 
29.70297

>  <N_hits>  (31) 
2

>  <submitter_name>  (31) 
nan

>  <original SMILES>  (31) 
nan

>  <∆G_unbound>  (31) 
2.592717

>  <∆G_bound>  (31) 
-10.838357

>  <regarded>  (31) 
mArh-5cms_H_7_H,mArh-5cms_D_3_D

>  <ref_pdb>  (31) 
nan

>  <smiles>  (31) 
Nc1ncnc2c1ncn2C1OC(CO[P@@](=O)(O)O[P@@](=O)(O)OCC2OC(O)C(O)C2O)C(O)C1O

>  <submitter_email>  (31) 
nan

>  <disregarded>  (31) 


>  <LE>  (31) 
-0.373085

>  <submitter_institution>  (31) 
nan

>  <ref_mols>  (31) 
mArh-5cms_H_7_H,mArh-5cms_D_3_D

>  <N_constrained_atoms>  (31) 
36.0

>  <ref_url>  (31) 
nan

>  <method>  (31) 
nan

>  <comRMSD>  (31) 
0.699152

>  <N_unconstrained_atoms>  (31) 
0.0

>  <∆∆G>  (31) 
-13.431074

>  <runtime>  (31) 
49.490874

>  <generation_date>  (31) 
nan

$$$$
mArh-x0844_0_A-mArh-6woj_B_0_B
     RDKit          3D

 43 47  0  0  0  0  0  0  0  0999 V2000
   -7.6820   15.5460   -0.4740 O   0  0  0  0  0  0  0  0  0  0  0  0
   -6.4980   15.2250   -0.5730 C   0  0  0  0  0  0  0  0  0  0  0  0
   -5.8650   14.5950    0.4440 N   0  0  0  0  0  0  0  0  0  0  0  0
   -5.6450   15.4380   -1.8100 C   0  0  0  0  0  0  0  0  0  0  0  0
   -5.4510   13.3570    0.1460 C   0  0  0  0  0  0  0  0  0  0  0  0
   -4.7130   14.2420   -2.1300 C   0  0  2  0  0  0  0  0  0  0  0  0
   -4.9230   13.1410   -1.0840 C   0  0  0  0  0  0  0  0  0  0  0  0
   -3.3560   14.4440   -1.6540 C   0  0  0  0  0  0  0  0  0  0  0  0
   -3.5310   14.4550   -0.4230 N   0  0  0  0  0  0  0  0  0  0  0  0
   -2.0090   14.6090   -2.0260 N   0  0  0  0  0  0  0  0  0  0  0  0
   -1.2600   14.7020   -3.2850 C   0  0  1  0  0  0  0  0  0  0  0  0
   -2.4070   14.5990    0.1280 C   0  0  0  0  0  0  0  0  0  0  0  0
   -1.3870   14.6980   -0.7700 C   0  0  0  0  0  0  0  0  0  0  0  0
   -0.0620   15.4850   -3.2360 O   0  0  0  0  0  0  0  0  0  0  0  0
   -0.9420   13.5280   -4.2630 C   0  0  2  0  0  0  0  0  0  0  0  0
   -2.2300   14.6490    1.4410 C   0  0  0  0  0  0  0  0  0  0  0  0
   -0.1160   14.8530   -0.4180 N   0  0  0  0  0  0  0  0  0  0  0  0
   -0.5080   12.3050   -3.6700 O   0  0  0  0  0  0  0  0  0  0  0  0
   -3.2890   14.5660    2.2940 N   0  0  0  0  0  0  0  0  0  0  0  0
    0.0260   15.5940   -4.6550 C   0  0  2  0  0  0  0  0  0  0  0  0
    0.2280   14.1380   -5.0670 C   0  0  1  0  0  0  0  0  0  0  0  0
   -1.0170   14.7900    1.8720 N   0  0  0  0  0  0  0  0  0  0  0  0
   -0.0610   14.8960    0.9420 C   0  0  0  0  0  0  0  0  0  0  0  0
    0.8980   16.7040   -5.1820 C   0  0  0  0  0  0  0  0  0  0  0  0
    1.4800   13.5400   -4.7460 O   0  0  0  0  0  0  0  0  0  0  0  0
    0.1220   17.3310   -6.1960 O   0  0  0  0  0  0  0  0  0  0  0  0
   -1.1370   18.2530   -5.8420 P   0  0  2  0  0  0  0  0  0  0  0  0
   -1.5920   18.2550   -4.4440 O   0  0  0  0  0  0  0  0  0  0  0  0
   -2.3360   17.6930   -6.7580 O   0  0  0  0  0  0  0  0  0  0  0  0
   -0.8480   19.6600   -6.4290 O   0  0  0  0  0  0  0  0  0  0  0  0
   -0.0630   20.0190   -7.7460 P   0  0  1  0  0  0  0  0  0  0  0  0
    1.2010   20.7980   -7.5180 O   0  0  0  0  0  0  0  0  0  0  0  0
    0.0980   18.6460   -8.5790 O   0  0  0  0  0  0  0  0  0  0  0  0
   -1.1840   20.8100   -8.5180 O   0  0  0  0  0  0  0  0  0  0  0  0
   -1.7010   21.9630   -7.8810 C   0  0  0  0  0  0  0  0  0  0  0  0
   -3.1590   22.2090   -8.2450 C   0  0  2  0  0  0  0  0  0  0  0  0
   -3.6480   23.6170   -7.8890 C   0  0  1  0  0  0  0  0  0  0  0  0
   -3.9950   21.3030   -7.4990 O   0  0  0  0  0  0  0  0  0  0  0  0
   -4.5490   24.0790   -8.9070 O   0  0  0  0  0  0  0  0  0  0  0  0
   -5.0050   22.0370   -6.8330 C   0  0  2  0  0  0  0  0  0  0  0  0
   -4.4020   23.4050   -6.5800 C   0  0  2  0  0  0  0  0  0  0  0  0
   -5.3250   21.3960   -5.6040 O   0  0  0  0  0  0  0  0  0  0  0  0
   -5.4230   24.3720   -6.3450 O   0  0  0  0  0  0  0  0  0  0  0  0
  1  2  2  0
  2  3  1  0
  2  4  1  0
  3  5  1  0
  4  6  1  0
  5  7  2  0
  6  7  1  0
  6  8  1  1
  8  9  2  0
  8 10  1  0
 11 10  1  1
  9 12  1  0
 10 13  1  0
 12 13  2  0
 11 14  1  0
 11 15  1  0
 12 16  1  0
 13 17  1  0
 15 18  1  1
 16 19  1  0
 14 20  1  0
 15 21  1  0
 20 21  1  0
 16 22  2  0
 17 23  2  0
 22 23  1  0
 20 24  1  1
 21 25  1  1
 24 26  1  0
 26 27  1  0
 27 28  2  0
 27 29  1  6
 27 30  1  0
 30 31  1  0
 31 32  2  0
 31 33  1  6
 31 34  1  0
 34 35  1  0
 36 35  1  1
 36 37  1  0
 36 38  1  0
 37 39  1  6
 38 40  1  0
 37 41  1  0
 40 41  1  0
 40 42  1  1
 41 43  1  6
M  END
>  <%Rank>  (32) 
30.693069

>  <N_hits>  (32) 
2

>  <submitter_name>  (32) 
nan

>  <original SMILES>  (32) 
nan

>  <∆G_unbound>  (32) 
5.917239

>  <∆G_bound>  (32) 
-16.583487

>  <regarded>  (32) 
mArh-x0844_0_A,mArh-6woj_B_0_B

>  <ref_pdb>  (32) 
nan

>  <smiles>  (32) 
Nc1ncnc2c1nc(C1C=CNC(=O)C1)n2C1OC(CO[P@](=O)(O)O[P@@](=O)(O)OCC2OC(O)C(O)C2O)C(O)C1O

>  <submitter_email>  (32) 
nan

>  <disregarded>  (32) 


>  <LE>  (32) 
-0.523273

>  <submitter_institution>  (32) 
nan

>  <ref_mols>  (32) 
mArh-x0844_0_A,mArh-6woj_B_0_B

>  <N_constrained_atoms>  (32) 
43.0

>  <ref_url>  (32) 
nan

>  <method>  (32) 
nan

>  <comRMSD>  (32) 
0.837189

>  <N_unconstrained_atoms>  (32) 
0.0

>  <∆∆G>  (32) 
-22.500725

>  <runtime>  (32) 
40.812931

>  <generation_date>  (32) 
nan

$$$$
mArh-x0592_0_A-mArh-x0852_0_B
     RDKit          3D

 21 22  0  0  0  0  0  0  0  0999 V2000
   -2.6260   14.9980    1.0460 N   0  0  0  0  0  0  0  0  0  0  0  0
   -3.1750   14.9460   -0.2020 C   0  0  0  0  0  0  0  0  0  0  0  0
   -2.4660   14.9340   -1.1990 O   0  0  0  0  0  0  0  0  0  0  0  0
   -4.6130   14.8870   -0.2530 C   0  0  0  0  0  0  0  0  0  0  0  0
   -5.4530   15.2110   -1.3460 C   0  0  0  0  0  0  0  0  0  0  0  0
   -5.4880   14.5040    0.7340 C   0  0  0  0  0  0  0  0  0  0  0  0
   -6.7500   15.0400   -1.0660 N   0  0  0  0  0  0  0  0  0  0  0  0
   -6.7320   14.6090    0.2080 N   0  0  0  0  0  0  0  0  0  0  0  0
   -7.9620   14.3020    0.8980 C   0  0  0  0  0  0  0  0  0  0  0  0
   -7.6930   13.3650    2.0830 C   0  0  0  0  0  0  0  0  0  0  0  0
   -7.4890   14.1090    3.2940 O   0  0  0  0  0  0  0  0  0  0  0  0
   -8.3550   15.1060    3.5140 C   0  0  0  0  0  0  0  0  0  0  0  0
   -8.4120   15.6380    4.8160 C   0  0  0  0  0  0  0  0  0  0  0  0
   -9.1690   15.6050    2.5210 C   0  0  0  0  0  0  0  0  0  0  0  0
   -7.6090   15.1380    5.8310 O   0  0  0  0  0  0  0  0  0  0  0  0
  -10.0420   16.6310    2.7850 C   0  0  0  0  0  0  0  0  0  0  0  0
   -9.3050   16.6850    5.0850 C   0  0  0  0  0  0  0  0  0  0  0  0
   -9.4340   17.2750    6.3770 C   0  0  0  0  0  0  0  0  0  0  0  0
  -11.1260   17.2650    1.3710 Br  0  0  0  0  0  0  0  0  0  0  0  0
  -10.1170   17.1790    4.0590 C   0  0  0  0  0  0  0  0  0  0  0  0
   -9.6140   17.7510    7.4230 N   0  0  0  0  0  0  0  0  0  0  0  0
  1  2  1  0
  2  3  2  0
  2  4  1  0
  4  5  1  0
  4  6  2  0
  5  7  2  0
  6  8  1  0
  7  8  1  0
  8  9  1  0
  9 10  1  0
 10 11  1  0
 11 12  1  0
 12 13  2  0
 12 14  1  0
 13 15  1  0
 14 16  2  0
 13 17  1  0
 17 18  1  0
 16 19  1  0
 16 20  1  0
 17 20  2  0
 18 21  3  0
M  END
>  <%Rank>  (33) 
31.683168

>  <N_hits>  (33) 
2

>  <submitter_name>  (33) 
nan

>  <original SMILES>  (33) 
nan

>  <∆G_unbound>  (33) 
0.43425

>  <∆G_bound>  (33) 
-4.321271

>  <regarded>  (33) 
mArh-x0592_0_A,mArh-x0852_0_B

>  <ref_pdb>  (33) 
nan

>  <smiles>  (33) 
N#Cc1cc(Br)cc(OCCn2cc(C(N)=O)cn2)c1O

>  <submitter_email>  (33) 
nan

>  <disregarded>  (33) 


>  <LE>  (33) 
-0.226453

>  <submitter_institution>  (33) 
nan

>  <ref_mols>  (33) 
mArh-x0592_0_A,mArh-x0852_0_B

>  <N_constrained_atoms>  (33) 
21.0

>  <ref_url>  (33) 
nan

>  <method>  (33) 
nan

>  <comRMSD>  (33) 
0.44357

>  <N_unconstrained_atoms>  (33) 
0.0

>  <∆∆G>  (33) 
-4.755521

>  <runtime>  (33) 
25.379696

>  <generation_date>  (33) 
nan

$$$$
mArh-5cb5_F_1_F-mArh-5cb5_C_0_C
     RDKit          3D

 39 42  0  0  0  0  0  0  0  0999 V2000
   -1.5580   18.4610   -5.9680 P   0  0  1  0  0  0  0  0  0  0  0  0
   -0.9320   17.2470   -5.1440 O   0  0  0  0  0  0  0  0  0  0  0  0
    0.4680   16.9960   -5.2460 C   0  0  0  0  0  0  0  0  0  0  0  0
   -2.5620   18.0660   -6.9980 O   0  0  0  0  0  0  0  0  0  0  0  0
   -2.2560   19.3420   -4.8350 O   0  0  0  0  0  0  0  0  0  0  0  0
   -0.3810   19.4590   -6.3450 O   0  0  0  0  0  0  0  0  0  0  0  0
   -0.1040   20.0560   -7.7820 P   0  0  2  0  0  0  0  0  0  0  0  0
   -1.0820   21.3380   -8.0170 O   0  0  0  0  0  0  0  0  0  0  0  0
    0.0840   18.9670   -8.8030 O   0  0  0  0  0  0  0  0  0  0  0  0
    1.2370   20.9060   -7.5610 O   0  0  0  0  0  0  0  0  0  0  0  0
    0.8100   15.7090   -4.4930 C   0  0  1  0  0  0  0  0  0  0  0  0
   -2.2750   20.9240   -8.5230 C   0  0  0  0  0  0  0  0  0  0  0  0
    0.1170   15.7510   -3.2400 O   0  0  0  0  0  0  0  0  0  0  0  0
    0.3960   14.4000   -5.1990 C   0  0  1  0  0  0  0  0  0  0  0  0
    1.5040   13.5750   -5.5290 O   0  0  0  0  0  0  0  0  0  0  0  0
   -0.5140   13.6730   -4.2230 C   0  0  1  0  0  0  0  0  0  0  0  0
   -0.3040   14.4200   -2.9140 C   0  0  2  0  0  0  0  0  0  0  0  0
   -3.4790   21.7700   -9.0340 C   0  0  1  0  0  0  0  0  0  0  0  0
   -1.8290   13.4170   -4.6870 O   0  0  0  0  0  0  0  0  0  0  0  0
   -4.6420   20.9790   -8.7470 O   0  0  0  0  0  0  0  0  0  0  0  0
   -4.0080   23.0190   -8.4000 C   0  0  2  0  0  0  0  0  0  0  0  0
   -1.3330   14.6030   -1.9350 N   0  0  0  0  0  0  0  0  0  0  0  0
   -3.3140   24.1790   -8.5680 O   0  0  0  0  0  0  0  0  0  0  0  0
   -1.1720   14.6220   -0.6010 C   0  0  0  0  0  0  0  0  0  0  0  0
   -4.2140   22.4560   -7.0200 C   0  0  2  0  0  0  0  0  0  0  0  0
   -5.1900   21.4220   -7.5080 C   0  0  2  0  0  0  0  0  0  0  0  0
   -2.6740   14.8020   -2.1930 C   0  0  0  0  0  0  0  0  0  0  0  0
   -4.9090   23.2620   -6.0860 O   0  0  0  0  0  0  0  0  0  0  0  0
   -5.3240   20.3340   -6.6420 O   0  0  0  0  0  0  0  0  0  0  0  0
   -2.4330   14.8430   -0.0820 C   0  0  0  0  0  0  0  0  0  0  0  0
   -0.0250   14.4650    0.0580 N   0  0  0  0  0  0  0  0  0  0  0  0
   -3.3680   14.9530   -1.0810 N   0  0  0  0  0  0  0  0  0  0  0  0
   -5.3350   24.3790   -6.5680 C   0  0  0  0  0  0  0  0  0  0  0  0
   -2.5260   14.9190    1.3030 C   0  0  0  0  0  0  0  0  0  0  0  0
   -0.2560   14.5420    1.3780 C   0  0  0  0  0  0  0  0  0  0  0  0
   -4.5050   25.4570   -5.9580 C   0  0  0  0  0  0  0  0  0  0  0  0
   -6.2520   24.4380   -7.3540 O   0  0  0  0  0  0  0  0  0  0  0  0
   -3.7110   15.1700    1.9570 N   0  0  0  0  0  0  0  0  0  0  0  0
   -1.4100   14.7500    2.0150 N   0  0  0  0  0  0  0  0  0  0  0  0
  1  2  1  0
  2  3  1  0
  1  4  2  0
  1  5  1  1
  1  6  1  0
  6  7  1  0
  7  8  1  0
  7  9  2  0
  7 10  1  1
 11  3  1  6
  8 12  1  0
 11 13  1  0
 11 14  1  0
 14 15  1  1
 14 16  1  0
 13 17  1  0
 16 17  1  0
 18 12  1  1
 16 19  1  6
 18 20  1  0
 18 21  1  0
 17 22  1  6
 21 23  1  1
 22 24  1  0
 21 25  1  0
 20 26  1  0
 25 26  1  0
 22 27  1  0
 25 28  1  1
 26 29  1  1
 24 30  2  0
 24 31  1  0
 27 32  2  0
 30 32  1  0
 28 33  1  0
 30 34  1  0
 31 35  2  0
 33 36  1  0
 33 37  2  0
 34 38  1  0
 34 39  2  0
 35 39  1  0
M  END
>  <%Rank>  (34) 
32.673267

>  <N_hits>  (34) 
2

>  <submitter_name>  (34) 
nan

>  <original SMILES>  (34) 
nan

>  <∆G_unbound>  (34) 
7.271863

>  <∆G_bound>  (34) 
-11.010643

>  <regarded>  (34) 
mArh-5cb5_F_1_F,mArh-5cb5_C_0_C

>  <ref_pdb>  (34) 
nan

>  <smiles>  (34) 
CC(=O)OC1C(O)OC(CO[P@@](=O)(O)O[P@](=O)(O)OCC2OC(n3cnc4c(N)ncnc43)C(O)C2O)C1O

>  <submitter_email>  (34) 
nan

>  <disregarded>  (34) 


>  <LE>  (34) 
-0.468782

>  <submitter_institution>  (34) 
nan

>  <ref_mols>  (34) 
mArh-5cb5_F_1_F,mArh-5cb5_C_0_C

>  <N_constrained_atoms>  (34) 
39.0

>  <ref_url>  (34) 
nan

>  <method>  (34) 
nan

>  <comRMSD>  (34) 
0.824131

>  <N_unconstrained_atoms>  (34) 
0.0

>  <∆∆G>  (34) 
-18.282506

>  <runtime>  (34) 
58.857219

>  <generation_date>  (34) 
nan

$$$$
mArh-x0104_0_A-mArh-x0933_0_A
     RDKit          3D

 17 18  0  0  0  0  0  0  0  0999 V2000
   -6.7920   14.6690    2.7010 N   0  0  0  0  0  0  0  0  0  0  0  0
   -8.0240   15.1050    3.1780 C   0  0  0  0  0  0  0  0  0  0  0  0
   -7.9920   15.2300    4.5610 N   0  0  0  0  0  0  0  0  0  0  0  0
   -6.2500   14.7560    1.4030 C   0  0  0  0  0  0  0  0  0  0  0  0
   -8.9950   15.3420    2.4710 O   0  0  0  0  0  0  0  0  0  0  0  0
   -4.8900   14.9160    1.1240 C   0  0  0  0  0  0  0  0  0  0  0  0
   -7.1190   14.6820    0.3140 C   0  0  0  0  0  0  0  0  0  0  0  0
   -4.3700   15.0020   -0.1270 N   0  0  0  0  0  0  0  0  0  0  0  0
   -6.6110   14.7720   -0.9780 C   0  0  0  0  0  0  0  0  0  0  0  0
   -9.0990   15.1800    5.3810 C   0  0  0  0  0  0  0  0  0  0  0  0
   -5.2470   14.9300   -1.1480 C   0  0  0  0  0  0  0  0  0  0  0  0
   -9.2560   15.2360    6.7480 C   0  0  0  0  0  0  0  0  0  0  0  0
  -10.5860   15.0150    4.5650 S   0  0  0  0  0  0  0  0  0  0  0  0
   -4.8150   15.0090   -2.4550 O   0  0  0  0  0  0  0  0  0  0  0  0
  -11.4630   15.0190    6.0390 C   0  0  0  0  0  0  0  0  0  0  0  0
  -10.6290   15.1430    7.1280 C   0  0  0  0  0  0  0  0  0  0  0  0
   -3.4020   15.0830   -2.5880 C   0  0  0  0  0  0  0  0  0  0  0  0
  1  2  1  0
  2  3  1  0
  1  4  1  0
  2  5  2  0
  4  6  2  0
  4  7  1  0
  6  8  1  0
  7  9  2  0
  3 10  1  0
  8 11  2  0
  9 11  1  0
 10 12  2  0
 10 13  1  0
 11 14  1  0
 13 15  1  0
 12 16  1  0
 15 16  2  0
 14 17  1  0
M  END
>  <%Rank>  (35) 
33.663366

>  <N_hits>  (35) 
2

>  <submitter_name>  (35) 
nan

>  <original SMILES>  (35) 
nan

>  <∆G_unbound>  (35) 
0.439615

>  <∆G_bound>  (35) 
-2.913407

>  <regarded>  (35) 
mArh-x0104_0_A,mArh-x0933_0_A

>  <ref_pdb>  (35) 
nan

>  <smiles>  (35) 
COc1ccc(NC(=O)Nc2cccs2)cn1

>  <submitter_email>  (35) 
nan

>  <disregarded>  (35) 


>  <LE>  (35) 
-0.197237

>  <submitter_institution>  (35) 
nan

>  <ref_mols>  (35) 
mArh-x0104_0_A,mArh-x0933_0_A

>  <N_constrained_atoms>  (35) 
17.0

>  <ref_url>  (35) 
nan

>  <method>  (35) 
nan

>  <comRMSD>  (35) 
0.396752

>  <N_unconstrained_atoms>  (35) 
0.0

>  <∆∆G>  (35) 
-3.353021

>  <runtime>  (35) 
26.513555

>  <generation_date>  (35) 
nan

$$$$
mArh-x0926_0_A-mArh-5cms_N_13_N
     RDKit          3D

 42 46  0  0  0  0  0  0  0  0999 V2000
   -7.1290   14.1740   -0.2680 O   0  0  0  0  0  0  0  0  0  0  0  0
   -5.9110   14.3410   -0.2220 C   0  0  0  0  0  0  0  0  0  0  0  0
   -5.0500   13.9320    1.0030 C   0  0  0  0  0  0  0  0  0  0  0  0
   -5.2470   14.9460   -1.2790 N   0  0  0  0  0  0  0  0  0  0  0  0
   -4.3570   16.0090   -1.0220 N   0  0  0  0  0  0  0  0  0  0  0  0
   -3.8230   14.7970    0.8830 C   0  0  2  0  0  0  0  0  0  0  0  0
   -4.1840   16.1170    0.4270 C   0  0  0  0  0  0  0  0  0  0  0  0
   -2.3920   14.6520    0.6990 C   0  0  0  0  0  0  0  0  0  0  0  0
   -1.4050   14.5790    1.6060 N   0  0  0  0  0  0  0  0  0  0  0  0
   -2.1300   14.6330   -0.6140 C   0  0  0  0  0  0  0  0  0  0  0  0
   -0.8570   14.5560   -1.0560 C   0  0  0  0  0  0  0  0  0  0  0  0
   -0.1660   14.5120    1.0560 C   0  0  0  0  0  0  0  0  0  0  0  0
   -3.0650   14.6950   -1.6030 N   0  0  0  0  0  0  0  0  0  0  0  0
    0.2380   14.4940   -0.2730 N   0  0  0  0  0  0  0  0  0  0  0  0
   -1.0620   14.5710   -2.4220 N   0  0  0  0  0  0  0  0  0  0  0  0
   -2.3870   14.6540   -2.6710 C   0  0  0  0  0  0  0  0  0  0  0  0
   -0.2230   14.5290   -3.5240 C   0  0  1  0  0  0  0  0  0  0  0  0
    0.6820   15.5740   -3.7130 O   0  0  0  0  0  0  0  0  0  0  0  0
    0.1960   13.3390   -4.3320 C   0  0  2  0  0  0  0  0  0  0  0  0
    1.4360   12.7010   -4.0230 O   0  0  0  0  0  0  0  0  0  0  0  0
    0.2370   15.6530   -5.0570 C   0  0  2  0  0  0  0  0  0  0  0  0
    0.3660   14.1930   -5.5830 C   0  0  1  0  0  0  0  0  0  0  0  0
    0.7890   16.9280   -5.6850 C   0  0  0  0  0  0  0  0  0  0  0  0
    1.5410   13.7820   -6.1710 O   0  0  0  0  0  0  0  0  0  0  0  0
   -0.1870   17.4560   -6.5910 O   0  0  0  0  0  0  0  0  0  0  0  0
   -1.5910   18.1580   -6.2300 P   0  0  1  0  0  0  0  0  0  0  0  0
   -2.7620   17.4330   -6.7610 O   0  0  0  0  0  0  0  0  0  0  0  0
   -1.6350   18.3190   -4.6450 O   0  0  0  0  0  0  0  0  0  0  0  0
   -1.4120   19.6140   -6.7660 O   0  0  0  0  0  0  0  0  0  0  0  0
   -0.4480   19.9220   -7.9690 P   0  0  1  0  0  0  0  0  0  0  0  0
    0.8350   20.5870   -7.6340 O   0  0  0  0  0  0  0  0  0  0  0  0
   -0.2420   18.5510   -8.7570 O   0  0  0  0  0  0  0  0  0  0  0  0
   -1.3810   20.7200   -9.0060 O   0  0  0  0  0  0  0  0  0  0  0  0
   -1.6250   22.0590   -8.6070 C   0  0  0  0  0  0  0  0  0  0  0  0
   -2.9200   22.7030   -9.1170 C   0  0  1  0  0  0  0  0  0  0  0  0
   -3.0500   23.1620  -10.5550 C   0  0  1  0  0  0  0  0  0  0  0  0
   -4.0920   21.9210   -8.9470 O   0  0  0  0  0  0  0  0  0  0  0  0
   -2.9650   22.1240  -11.5190 O   0  0  0  0  0  0  0  0  0  0  0  0
   -5.0850   22.8340   -9.4500 C   0  0  2  0  0  0  0  0  0  0  0  0
   -4.4810   23.6110  -10.6300 C   0  0  2  0  0  0  0  0  0  0  0  0
   -5.3680   23.7960   -8.4480 O   0  0  0  0  0  0  0  0  0  0  0  0
   -5.0280   23.2340  -11.8440 O   0  0  0  0  0  0  0  0  0  0  0  0
  1  2  2  0
  2  3  1  0
  2  4  1  0
  4  5  1  0
  3  6  1  0
  5  7  1  0
  6  7  1  0
  6  8  1  6
  8  9  2  0
  8 10  1  0
 10 11  2  0
  9 12  1  0
 10 13  1  0
 11 14  1  0
 12 14  2  0
 11 15  1  0
 13 16  2  0
 15 16  1  0
 17 15  1  1
 17 18  1  0
 17 19  1  0
 19 20  1  1
 18 21  1  0
 19 22  1  0
 21 22  1  0
 21 23  1  6
 22 24  1  1
 23 25  1  0
 25 26  1  0
 26 27  2  0
 26 28  1  1
 26 29  1  0
 29 30  1  0
 30 31  2  0
 30 32  1  6
 30 33  1  0
 33 34  1  0
 35 34  1  6
 35 36  1  0
 35 37  1  0
 36 38  1  6
 37 39  1  0
 36 40  1  0
 39 40  1  0
 39 41  1  1
 40 42  1  6
M  END
>  <%Rank>  (36) 
34.653465

>  <N_hits>  (36) 
2

>  <submitter_name>  (36) 
nan

>  <original SMILES>  (36) 
nan

>  <∆G_unbound>  (36) 
7.679988

>  <∆G_bound>  (36) 
-9.701829

>  <regarded>  (36) 
mArh-x0926_0_A,mArh-5cms_N_13_N

>  <ref_pdb>  (36) 
nan

>  <smiles>  (36) 
O=C1CC(c2ncnc3c2ncn3C2OC(CO[P@@](=O)(O)O[P@@](=O)(O)OCC3OC(O)C(O)C3O)C(O)C2O)CNN1

>  <submitter_email>  (36) 
nan

>  <disregarded>  (36) 


>  <LE>  (36) 
-0.413853

>  <submitter_institution>  (36) 
nan

>  <ref_mols>  (36) 
mArh-x0926_0_A,mArh-5cms_N_13_N

>  <N_constrained_atoms>  (36) 
42.0

>  <ref_url>  (36) 
nan

>  <method>  (36) 
nan

>  <comRMSD>  (36) 
0.835435

>  <N_unconstrained_atoms>  (36) 
0.0

>  <∆∆G>  (36) 
-17.381817

>  <runtime>  (36) 
28.639415

>  <generation_date>  (36) 
nan

$$$$
mArh-x0689_0_A-mArh-5l9k_A_0_A
     RDKit          3D

 38 41  0  0  0  0  0  0  0  0999 V2000
   -3.6580   14.4050    1.3270 N   0  0  0  0  0  0  0  0  0  0  0  0
   -4.5300   15.5330    1.5880 C   0  0  0  0  0  0  0  0  0  0  0  0
   -2.3240   14.7040    0.8430 C   0  0  2  0  0  0  0  0  0  0  0  0
   -2.1720   15.0550   -0.6230 C   0  0  2  0  0  0  0  0  0  0  0  0
   -1.4140   13.7920    1.4480 N   0  0  0  0  0  0  0  0  0  0  0  0
   -0.7870   15.6430   -0.6590 C   0  0  0  0  0  0  0  0  0  0  0  0
   -0.0300   14.1340    1.3350 C   0  0  0  0  0  0  0  0  0  0  0  0
   -3.2650   16.0210   -0.8350 C   0  0  0  0  0  0  0  0  0  0  0  0
   -2.5170   14.2290   -1.7940 N   0  0  0  0  0  0  0  0  0  0  0  0
    0.2530   15.1620    0.3170 C   0  0  0  0  0  0  0  0  0  0  0  0
   -2.1600   14.7860   -3.1160 C   0  0  1  0  0  0  0  0  0  0  0  0
   -4.4810   15.2160   -1.0510 N   0  0  0  0  0  0  0  0  0  0  0  0
   -3.9400   14.0040   -1.6500 C   0  0  0  0  0  0  0  0  0  0  0  0
   -1.1330   15.8060   -3.0600 O   0  0  0  0  0  0  0  0  0  0  0  0
   -1.9530   14.0740   -4.3210 C   0  0  2  0  0  0  0  0  0  0  0  0
   -2.2330   12.6750   -4.2150 O   0  0  0  0  0  0  0  0  0  0  0  0
   -0.0950   15.5730   -4.0360 C   0  0  1  0  0  0  0  0  0  0  0  0
   -0.5100   14.3040   -4.7630 C   0  0  1  0  0  0  0  0  0  0  0  0
    0.2020   16.8340   -4.8940 C   0  0  0  0  0  0  0  0  0  0  0  0
    0.3090   13.1850   -4.4610 O   0  0  0  0  0  0  0  0  0  0  0  0
   -0.6800   16.9960   -6.0030 O   0  0  0  0  0  0  0  0  0  0  0  0
   -1.8000   18.1110   -5.8870 P   0  0  2  0  0  0  0  0  0  0  0  0
   -2.2990   18.1920   -4.5210 O   0  0  0  0  0  0  0  0  0  0  0  0
   -2.9000   17.6160   -6.9180 O   0  0  0  0  0  0  0  0  0  0  0  0
   -1.2970   19.5070   -6.4590 O   0  0  0  0  0  0  0  0  0  0  0  0
   -0.6670   19.7260   -7.9030 P   0  0  2  0  0  0  0  0  0  0  0  0
   -0.2350   18.5390   -8.6770 O   0  0  0  0  0  0  0  0  0  0  0  0
    0.4940   20.7870   -7.6670 O   0  0  0  0  0  0  0  0  0  0  0  0
   -1.7460   20.6110   -8.6740 O   0  0  0  0  0  0  0  0  0  0  0  0
   -2.2020   21.8220   -8.0950 C   0  0  0  0  0  0  0  0  0  0  0  0
   -3.5230   22.2130   -8.7630 C   0  0  2  0  0  0  0  0  0  0  0  0
   -4.0420   23.5750   -8.3590 C   0  0  1  0  0  0  0  0  0  0  0  0
   -4.5400   21.3280   -8.3290 O   0  0  0  0  0  0  0  0  0  0  0  0
   -5.0380   23.9860   -9.3120 O   0  0  0  0  0  0  0  0  0  0  0  0
   -5.1390   21.8640   -7.1620 C   0  0  1  0  0  0  0  0  0  0  0  0
   -4.6760   23.3080   -7.0050 C   0  0  2  0  0  0  0  0  0  0  0  0
   -6.5140   21.7900   -7.4050 O   0  0  0  0  0  0  0  0  0  0  0  0
   -5.7480   24.2090   -6.7250 O   0  0  0  0  0  0  0  0  0  0  0  0
  1  2  1  0
  3  1  1  6
  3  4  1  0
  3  5  1  0
  4  6  1  1
  5  7  1  0
  4  8  1  0
  4  9  1  0
  6 10  2  0
  7 10  1  0
 11  9  1  1
  8 12  1  0
  9 13  1  0
 12 13  1  0
 11 14  1  0
 11 15  1  0
 15 16  1  1
 14 17  1  0
 15 18  1  0
 17 18  1  0
 17 19  1  6
 18 20  1  1
 19 21  1  0
 21 22  1  0
 22 23  2  0
 22 24  1  6
 22 25  1  0
 25 26  1  0
 26 27  2  0
 26 28  1  1
 26 29  1  0
 29 30  1  0
 31 30  1  1
 31 32  1  0
 31 33  1  0
 32 34  1  6
 33 35  1  0
 32 36  1  0
 35 36  1  0
 35 37  1  6
 36 38  1  6
M  END
>  <%Rank>  (37) 
35.643564

>  <N_hits>  (37) 
2

>  <submitter_name>  (37) 
nan

>  <original SMILES>  (37) 
nan

>  <∆G_unbound>  (37) 
4.687522

>  <∆G_bound>  (37) 
-12.751593

>  <regarded>  (37) 
mArh-x0689_0_A,mArh-5l9k_A_0_A

>  <ref_pdb>  (37) 
nan

>  <smiles>  (37) 
CNC1NCC=CC12CNCN2C1OC(CO[P@](=O)(O)O[P@](=O)(O)OCC2OC(O)C(O)C2O)C(O)C1O

>  <submitter_email>  (37) 
nan

>  <disregarded>  (37) 


>  <LE>  (37) 
-0.458924

>  <submitter_institution>  (37) 
nan

>  <ref_mols>  (37) 
mArh-x0689_0_A,mArh-5l9k_A_0_A

>  <N_constrained_atoms>  (37) 
38.0

>  <ref_url>  (37) 
nan

>  <method>  (37) 
nan

>  <comRMSD>  (37) 
0.826367

>  <N_unconstrained_atoms>  (37) 
0.0

>  <∆∆G>  (37) 
-17.439114

>  <runtime>  (37) 
32.354263

>  <generation_date>  (37) 
nan

$$$$
mArh-x1012_0_A-mArh-x0895_0_A
     RDKit          3D

 21 22  0  0  0  0  0  0  0  0999 V2000
   -0.7850   17.9810   -5.0210 N   0  0  0  0  0  0  0  0  0  0  0  0
   -1.4170   16.8000   -4.7840 C   0  0  0  0  0  0  0  0  0  0  0  0
   -2.6500   16.8320   -4.4470 N   0  0  0  0  0  0  0  0  0  0  0  0
   -0.6010   15.7150   -4.9400 N   0  0  0  0  0  0  0  0  0  0  0  0
   -3.3340   15.5380   -4.1820 C   0  0  0  0  0  0  0  0  0  0  0  0
   -1.1650   14.3880   -5.1870 C   0  0  0  0  0  0  0  0  0  0  0  0
    0.7940   15.7490   -4.4950 C   0  0  0  0  0  0  0  0  0  0  0  0
   -3.0640   14.9730   -2.7700 C   0  0  0  0  0  0  0  0  0  0  0  0
   -1.0450   13.4920   -3.9730 C   0  0  0  0  0  0  0  0  0  0  0  0
    1.0520   14.7430   -3.3590 C   0  0  0  0  0  0  0  0  0  0  0  0
   -4.1750   15.2170   -1.8290 N   0  0  0  0  0  0  0  0  0  0  0  0
    0.4220   13.3520   -3.5900 C   0  0  0  0  0  0  0  0  0  0  0  0
    0.5040   12.4500   -2.3830 C   0  0  0  0  0  0  0  0  0  0  0  0
   -3.9290   15.0750   -0.5840 C   0  0  0  0  0  0  0  0  0  0  0  0
    0.4230   11.1470   -2.7140 O   0  0  0  0  0  0  0  0  0  0  0  0
    0.6230   12.7740   -1.2130 O   0  0  0  0  0  0  0  0  0  0  0  0
   -4.6940   15.2280    0.5270 N   0  0  0  0  0  0  0  0  0  0  0  0
   -2.6910   14.7040   -0.1780 N   0  0  0  0  0  0  0  0  0  0  0  0
   -3.7990   15.7210    1.5500 C   0  0  0  0  0  0  0  0  0  0  0  0
   -2.5440   14.9410    1.1640 C   0  0  0  0  0  0  0  0  0  0  0  0
   -1.6060   14.6000    1.8730 O   0  0  0  0  0  0  0  0  0  0  0  0
  1  2  1  0
  2  3  2  3
  2  4  1  0
  3  5  1  0
  4  6  1  0
  4  7  1  0
  5  8  1  0
  6  9  1  0
  7 10  1  0
  8 11  1  0
  9 12  1  0
 10 12  1  0
 12 13  1  0
 11 14  2  3
 13 15  1  0
 13 16  2  0
 14 17  1  0
 14 18  1  0
 17 19  1  0
 18 20  1  0
 19 20  1  0
 20 21  2  0
M  END
>  <%Rank>  (38) 
36.633663

>  <N_hits>  (38) 
2

>  <submitter_name>  (38) 
nan

>  <original SMILES>  (38) 
nan

>  <∆G_unbound>  (38) 
1.118545

>  <∆G_bound>  (38) 
-4.202214

>  <regarded>  (38) 
mArh-x1012_0_A,mArh-x0895_0_A

>  <ref_pdb>  (38) 
nan

>  <smiles>  (38) 
NC(=NCCN=C1NCC(=O)N1)N1CCC(C(=O)O)CC1

>  <submitter_email>  (38) 
nan

>  <disregarded>  (38) 


>  <LE>  (38) 
-0.253369

>  <submitter_institution>  (38) 
nan

>  <ref_mols>  (38) 
mArh-x1012_0_A,mArh-x0895_0_A

>  <N_constrained_atoms>  (38) 
19.0

>  <ref_url>  (38) 
nan

>  <method>  (38) 
nan

>  <comRMSD>  (38) 
0.446685

>  <N_unconstrained_atoms>  (38) 
2.0

>  <∆∆G>  (38) 
-5.320759

>  <runtime>  (38) 
36.009388

>  <generation_date>  (38) 
nan

$$$$
mArh-5cms_K_10_K-mArh-x0918_1_B
     RDKit          3D

 45 49  0  0  0  0  0  0  0  0999 V2000
   -1.6040   18.3670   -5.9810 P   0  0  1  0  0  0  0  0  0  0  0  0
   -0.8930   17.5100   -4.8600 O   0  0  0  0  0  0  0  0  0  0  0  0
    0.2250   16.7220   -5.2110 C   0  0  0  0  0  0  0  0  0  0  0  0
   -2.4590   17.5840   -6.9140 O   0  0  0  0  0  0  0  0  0  0  0  0
   -2.4230   19.4200   -5.1220 O   0  0  0  0  0  0  0  0  0  0  0  0
   -0.3890   19.1680   -6.5220 O   0  0  0  0  0  0  0  0  0  0  0  0
   -0.1770   19.8230   -7.8970 P   0  0  1  0  0  0  0  0  0  0  0  0
    0.7970   20.9410   -7.9160 O   0  0  0  0  0  0  0  0  0  0  0  0
    0.2370   18.5920   -8.8310 O   0  0  0  0  0  0  0  0  0  0  0  0
   -1.6050   20.1410   -8.5140 O   0  0  0  0  0  0  0  0  0  0  0  0
   -0.2040   15.3990   -4.6500 C   0  0  2  0  0  0  0  0  0  0  0  0
   -2.3970   21.2540   -8.1400 C   0  0  0  0  0  0  0  0  0  0  0  0
    0.1000   15.3720   -3.2770 O   0  0  0  0  0  0  0  0  0  0  0  0
    0.2940   14.0670   -5.1590 C   0  0  1  0  0  0  0  0  0  0  0  0
    1.6810   13.8070   -4.9180 O   0  0  0  0  0  0  0  0  0  0  0  0
   -0.5000   13.2390   -4.1590 C   0  0  1  0  0  0  0  0  0  0  0  0
   -0.4780   14.1350   -2.8790 C   0  0  2  0  0  0  0  0  0  0  0  0
   -2.6030   22.1220   -9.3630 C   0  0  2  0  0  0  0  0  0  0  0  0
   -1.7460   12.8320   -4.6840 O   0  0  0  0  0  0  0  0  0  0  0  0
   -3.1210   23.5060   -9.1110 C   0  0  1  0  0  0  0  0  0  0  0  0
   -3.4470   21.5570  -10.3790 O   0  0  0  0  0  0  0  0  0  0  0  0
   -1.6510   14.4830   -2.1000 N   0  0  0  0  0  0  0  0  0  0  0  0
   -1.9370   24.2570   -8.8850 O   0  0  0  0  0  0  0  0  0  0  0  0
   -4.1580   22.5830  -11.0940 C   0  0  2  0  0  0  0  0  0  0  0  0
   -3.9910   23.9150  -10.3510 C   0  0  2  0  0  0  0  0  0  0  0  0
   -1.5820   14.5720   -0.7470 C   0  0  0  0  0  0  0  0  0  0  0  0
   -2.9460   14.7750   -2.4580 C   0  0  0  0  0  0  0  0  0  0  0  0
   -5.5350   22.2610  -11.1310 O   0  0  0  0  0  0  0  0  0  0  0  0
   -3.4350   24.9540  -11.2050 O   0  0  0  0  0  0  0  0  0  0  0  0
   -2.8510   14.9130   -0.3210 C   0  0  0  0  0  0  0  0  0  0  0  0
   -0.4830   14.3620   -0.0120 N   0  0  0  0  0  0  0  0  0  0  0  0
   -3.7060   15.0450   -1.4040 N   0  0  0  0  0  0  0  0  0  0  0  0
   -4.3960   25.6670  -12.0020 C   0  0  0  0  0  0  0  0  0  0  0  0
   -3.0150   15.0540    1.0640 C   0  0  0  0  0  0  0  0  0  0  0  0
   -0.7520   14.5110    1.2880 C   0  0  0  0  0  0  0  0  0  0  0  0
   -4.2140   15.4070    1.6710 N   0  0  0  0  0  0  0  0  0  0  0  0
   -3.7430   26.8190  -12.8110 C   0  0  0  0  0  0  0  0  0  0  0  0
   -1.9300   14.8300    1.8590 N   0  0  0  0  0  0  0  0  0  0  0  0
   -4.7030   27.9880  -12.9810 C   0  0  0  0  0  0  0  0  0  0  0  0
   -4.5570   29.0250  -13.9210 C   0  0  0  0  0  0  0  0  0  0  0  0
   -5.8280   28.0360  -12.1550 C   0  0  0  0  0  0  0  0  0  0  0  0
   -3.4720   29.1210  -14.8070 N   0  0  0  0  0  0  0  0  0  0  0  0
   -5.5430   30.0060  -13.9830 C   0  0  0  0  0  0  0  0  0  0  0  0
   -6.7860   28.9830  -12.2020 N   0  0  0  0  0  0  0  0  0  0  0  0
   -6.6220   29.9430  -13.1190 C   0  0  0  0  0  0  0  0  0  0  0  0
  1  2  1  0
  2  3  1  0
  1  4  2  0
  1  5  1  1
  1  6  1  0
  6  7  1  0
  7  8  2  0
  7  9  1  6
  7 10  1  0
 11  3  1  6
 10 12  1  0
 11 13  1  0
 11 14  1  0
 14 15  1  1
 14 16  1  0
 13 17  1  0
 16 17  1  0
 18 12  1  1
 16 19  1  6
 18 20  1  0
 18 21  1  0
 17 22  1  6
 20 23  1  6
 21 24  1  0
 20 25  1  0
 24 25  1  0
 22 26  1  0
 22 27  1  0
 24 28  1  1
 25 29  1  6
 26 30  2  0
 26 31  1  0
 27 32  2  0
 30 32  1  0
 29 33  1  0
 30 34  1  0
 31 35  2  0
 34 36  1  0
 33 37  1  0
 34 38  2  0
 35 38  1  0
 37 39  1  0
 39 40  2  0
 39 41  1  0
 40 42  1  0
 40 43  1  0
 41 44  2  0
 43 45  2  0
 44 45  1  0
M  END
>  <%Rank>  (39) 
37.623762

>  <N_hits>  (39) 
2

>  <submitter_name>  (39) 
nan

>  <original SMILES>  (39) 
nan

>  <∆G_unbound>  (39) 
3.05919

>  <∆G_bound>  (39) 
-13.705859

>  <regarded>  (39) 
mArh-5cms_K_10_K,mArh-x0918_1_B

>  <ref_pdb>  (39) 
nan

>  <smiles>  (39) 
Nc1ccncc1CCOC1C(O)OC(CO[P@](=O)(O)O[P@](=O)(O)OCC2OC(n3cnc4c(N)ncnc43)C(O)C2O)C1O

>  <submitter_email>  (39) 
nan

>  <disregarded>  (39) 


>  <LE>  (39) 
-0.372557

>  <submitter_institution>  (39) 
nan

>  <ref_mols>  (39) 
mArh-5cms_K_10_K,mArh-x0918_1_B

>  <N_constrained_atoms>  (39) 
43.0

>  <ref_url>  (39) 
nan

>  <method>  (39) 
nan

>  <comRMSD>  (39) 
0.833861

>  <N_unconstrained_atoms>  (39) 
2.0

>  <∆∆G>  (39) 
-16.765048

>  <runtime>  (39) 
61.877266

>  <generation_date>  (39) 
nan

$$$$
mArh-5cms_I_8_I-mArh-x0253_0_A
     RDKit          3D

 49 53  0  0  0  0  0  0  0  0999 V2000
   -1.5600   17.9750   -6.1370 P   0  0  1  0  0  0  0  0  0  0  0  0
   -0.0920   17.2890   -6.2850 O   0  0  0  0  0  0  0  0  0  0  0  0
    0.6360   16.5610   -5.2850 C   0  0  0  0  0  0  0  0  0  0  0  0
   -2.7030   17.2130   -6.7000 O   0  0  0  0  0  0  0  0  0  0  0  0
   -1.7350   18.2820   -4.5860 O   0  0  0  0  0  0  0  0  0  0  0  0
   -1.3940   19.3960   -6.7500 O   0  0  0  0  0  0  0  0  0  0  0  0
   -0.1760   19.6390   -7.7120 P   0  0  1  0  0  0  0  0  0  0  0  0
    1.1540   19.6830   -7.0700 O   0  0  0  0  0  0  0  0  0  0  0  0
   -0.2770   18.4960   -8.8020 O   0  0  0  0  0  0  0  0  0  0  0  0
   -0.6560   20.9340   -8.4760 O   0  0  0  0  0  0  0  0  0  0  0  0
   -0.2590   15.5060   -4.6430 C   0  0  2  0  0  0  0  0  0  0  0  0
   -1.7700   21.6020   -7.9010 C   0  0  0  0  0  0  0  0  0  0  0  0
   -0.2690   15.4640   -3.2370 O   0  0  0  0  0  0  0  0  0  0  0  0
   -0.2790   13.9970   -5.0190 C   0  0  1  0  0  0  0  0  0  0  0  0
    0.7710   12.9990   -4.7280 N   0  0  0  0  0  0  0  0  0  0  0  0
   -1.3990   13.5610   -4.0620 C   0  0  1  0  0  0  0  0  0  0  0  0
   -1.5610   14.8400   -3.2530 C   0  0  1  0  0  0  0  0  0  0  0  0
   -2.8000   21.8610   -8.9830 C   0  0  2  0  0  0  0  0  0  0  0  0
   -2.5240   13.0610   -4.7790 O   0  0  0  0  0  0  0  0  0  0  0  0
    0.4360   11.8800   -5.5230 N   0  0  0  0  0  0  0  0  0  0  0  0
    1.0100   12.5440   -3.4200 C   0  0  0  0  0  0  0  0  0  0  0  0
   -3.1580   23.2930   -9.0290 C   0  0  1  0  0  0  0  0  0  0  0  0
   -4.1340   21.3610   -8.7390 O   0  0  0  0  0  0  0  0  0  0  0  0
   -2.2440   14.9360   -2.0110 N   0  0  0  0  0  0  0  0  0  0  0  0
   -2.0540   24.1200   -9.0570 O   0  0  0  0  0  0  0  0  0  0  0  0
    1.2140   11.6490   -6.6180 C   0  0  0  0  0  0  0  0  0  0  0  0
    1.6900   13.1170   -2.5800 O   0  0  0  0  0  0  0  0  0  0  0  0
    0.4020   11.3720   -3.1270 O   0  0  0  0  0  0  0  0  0  0  0  0
   -5.0330   22.3330   -9.3500 C   0  0  2  0  0  0  0  0  0  0  0  0
   -4.1590   23.2450  -10.1720 C   0  0  2  0  0  0  0  0  0  0  0  0
   -1.7840   14.8520   -0.7220 C   0  0  0  0  0  0  0  0  0  0  0  0
   -3.5820   15.1800   -1.9700 C   0  0  0  0  0  0  0  0  0  0  0  0
   -5.7040   23.0750   -8.3790 O   0  0  0  0  0  0  0  0  0  0  0  0
   -3.8920   22.4430  -11.3350 O   0  0  0  0  0  0  0  0  0  0  0  0
    2.3250   12.1220   -6.6840 O   0  0  0  0  0  0  0  0  0  0  0  0
   -2.9250   15.0910    0.0220 C   0  0  0  0  0  0  0  0  0  0  0  0
   -0.5410   14.6220   -0.2500 N   0  0  0  0  0  0  0  0  0  0  0  0
   -4.0280   15.2790   -0.7610 N   0  0  0  0  0  0  0  0  0  0  0  0
    0.5980   10.7550   -7.6490 C   0  0  0  0  0  0  0  0  0  0  0  0
   -2.7910   15.1180    1.3850 C   0  0  0  0  0  0  0  0  0  0  0  0
   -0.5480   14.6500    1.1010 C   0  0  0  0  0  0  0  0  0  0  0  0
   -0.3610    9.8450   -7.1940 C   0  0  0  0  0  0  0  0  0  0  0  0
    0.9270   10.7870   -9.0130 C   0  0  0  0  0  0  0  0  0  0  0  0
   -3.8800   15.4070    2.1780 N   0  0  0  0  0  0  0  0  0  0  0  0
   -1.5830   14.8780    1.9290 N   0  0  0  0  0  0  0  0  0  0  0  0
   -0.9920    8.9700   -8.0830 C   0  0  0  0  0  0  0  0  0  0  0  0
    0.3010    9.9150   -9.9020 C   0  0  0  0  0  0  0  0  0  0  0  0
   -2.0220    7.9990   -7.5890 C   0  0  0  0  0  0  0  0  0  0  0  0
   -0.6540    9.0120   -9.4410 C   0  0  0  0  0  0  0  0  0  0  0  0
  1  2  1  0
  2  3  1  0
  1  4  2  0
  1  5  1  1
  1  6  1  0
  6  7  1  0
  7  8  2  0
  7  9  1  6
  7 10  1  0
 11  3  1  1
 10 12  1  0
 11 13  1  0
 11 14  1  0
 14 15  1  1
 14 16  1  0
 13 17  1  0
 16 17  1  0
 18 12  1  1
 16 19  1  6
 15 20  1  0
 15 21  1  0
 18 22  1  0
 18 23  1  0
 17 24  1  1
 22 25  1  6
 20 26  1  0
 21 27  2  0
 21 28  1  0
 23 29  1  0
 22 30  1  0
 29 30  1  0
 24 31  1  0
 24 32  1  0
 29 33  1  1
 30 34  1  6
 26 35  2  0
 31 36  2  0
 31 37  1  0
 32 38  2  0
 36 38  1  0
 26 39  1  0
 36 40  1  0
 37 41  2  0
 39 42  2  0
 39 43  1  0
 40 44  1  0
 40 45  2  0
 41 45  1  0
 42 46  1  0
 43 47  2  0
 46 48  1  0
 46 49  2  0
 47 49  1  0
M  END
>  <%Rank>  (40) 
38.613861

>  <N_hits>  (40) 
2

>  <submitter_name>  (40) 
nan

>  <original SMILES>  (40) 
nan

>  <∆G_unbound>  (40) 
7.505066

>  <∆G_bound>  (40) 
-9.002204

>  <regarded>  (40) 
mArh-5cms_I_8_I,mArh-x0253_0_A

>  <ref_pdb>  (40) 
nan

>  <smiles>  (40) 
Cc1cccc(C(=O)NN(C(=O)O)C2C(CO[P@@](=O)(O)O[P@@](=O)(O)OCC3OC(O)C(O)C3O)OC(n3cnc4c(N)ncnc43)C2O)c1

>  <submitter_email>  (40) 
nan

>  <disregarded>  (40) 


>  <LE>  (40) 
-0.336883

>  <submitter_institution>  (40) 
nan

>  <ref_mols>  (40) 
mArh-5cms_I_8_I,mArh-x0253_0_A

>  <N_constrained_atoms>  (40) 
49.0

>  <ref_url>  (40) 
nan

>  <method>  (40) 
nan

>  <comRMSD>  (40) 
0.883162

>  <N_unconstrained_atoms>  (40) 
0.0

>  <∆∆G>  (40) 
-16.507271

>  <runtime>  (40) 
60.90948

>  <generation_date>  (40) 
nan

$$$$
mArh-3ew5_A_0_A-mArh-5cb5_L_0_L
     RDKit          3D

 39 43  0  0  0  0  0  0  0  0999 V2000
   -0.3780   20.2110   -7.8530 P   0  0  2  0  0  0  0  0  0  0  0  0
   -1.9500   20.5280   -8.1660 O   0  0  0  0  0  0  0  0  0  0  0  0
   -2.5460   21.8480   -8.0840 C   0  0  2  0  0  0  0  0  0  0  0  0
    0.5170   21.3960   -7.9210 O   0  0  0  0  0  0  0  0  0  0  0  0
   -0.0530   19.0210   -8.8830 O   0  0  0  0  0  0  0  0  0  0  0  0
   -0.3680   19.4060   -6.5020 O   0  0  0  0  0  0  0  0  0  0  0  0
   -1.4570   18.3330   -6.1080 P   0  0  2  0  0  0  0  0  0  0  0  0
   -3.1200   21.9780   -6.6840 C   0  0  2  0  0  0  0  0  0  0  0  0
   -0.6670   16.9560   -5.9340 O   0  0  0  0  0  0  0  0  0  0  0  0
   -2.6230   18.1790   -6.9940 O   0  0  0  0  0  0  0  0  0  0  0  0
   -1.7910   18.6910   -4.5960 O   0  0  0  0  0  0  0  0  0  0  0  0
   -3.7530   22.1810   -9.0010 C   0  0  1  0  0  0  0  0  0  0  0  0
   -4.4310   21.2250   -6.4510 C   0  0  0  0  0  0  0  0  0  0  0  0
   -3.3340   23.3730   -6.4040 O   0  0  0  0  0  0  0  0  0  0  0  0
    0.6640   16.9570   -5.4470 C   0  0  0  0  0  0  0  0  0  0  0  0
   -5.1370   21.6490   -8.5250 C   0  0  1  0  0  0  0  0  0  0  0  0
   -4.1670   23.6670   -9.1520 C   0  0  1  0  0  0  0  0  0  0  0  0
   -5.4690   21.8050   -7.1680 O   0  0  0  0  0  0  0  0  0  0  0  0
   -3.9180   24.2250  -10.3930 O   0  0  0  0  0  0  0  0  0  0  0  0
    0.8910   15.6770   -4.6380 C   0  0  1  0  0  0  0  0  0  0  0  0
   -6.0840   22.4370   -9.3660 C   0  0  2  0  0  0  0  0  0  0  0  0
   -5.6520   23.7810   -8.9100 C   0  0  0  0  0  0  0  0  0  0  0  0
   -7.4420   22.3390   -9.0640 O   0  0  0  0  0  0  0  0  0  0  0  0
    0.2430   15.8330   -3.3520 O   0  0  0  0  0  0  0  0  0  0  0  0
    0.3430   14.4750   -5.1250 C   0  0  1  0  0  0  0  0  0  0  0  0
    1.3280   13.6380   -5.7230 O   0  0  0  0  0  0  0  0  0  0  0  0
   -0.2300   13.7630   -4.0870 C   0  0  1  0  0  0  0  0  0  0  0  0
   -0.2280   14.5280   -2.9340 C   0  0  2  0  0  0  0  0  0  0  0  0
   -1.4350   13.1000   -4.4080 O   0  0  0  0  0  0  0  0  0  0  0  0
   -1.3630   14.7160   -2.0610 N   0  0  0  0  0  0  0  0  0  0  0  0
   -1.2580   14.7030   -0.7210 C   0  0  0  0  0  0  0  0  0  0  0  0
   -2.6900   14.9490   -2.3730 C   0  0  0  0  0  0  0  0  0  0  0  0
   -2.5310   14.9470   -0.2400 C   0  0  0  0  0  0  0  0  0  0  0  0
   -0.1360   14.5020   -0.0350 N   0  0  0  0  0  0  0  0  0  0  0  0
   -3.4280   15.0970   -1.2810 N   0  0  0  0  0  0  0  0  0  0  0  0
   -2.6520   15.0020    1.1530 C   0  0  0  0  0  0  0  0  0  0  0  0
   -0.3830   14.5580    1.2790 C   0  0  0  0  0  0  0  0  0  0  0  0
   -3.8430   15.2720    1.7990 N   0  0  0  0  0  0  0  0  0  0  0  0
   -1.5520   14.7870    1.8970 N   0  0  0  0  0  0  0  0  0  0  0  0
  1  2  1  0
  3  2  1  6
  1  4  2  0
  1  5  1  6
  1  6  1  0
  6  7  1  0
  3  8  1  0
  7  9  1  0
  7 10  2  0
  7 11  1  1
  3 12  1  0
  8 13  1  0
  8 14  1  6
  9 15  1  0
 12 16  1  0
 12 17  1  1
 13 18  1  0
 16 18  1  1
 17 19  1  6
 20 15  1  6
 16 21  1  0
 17 22  1  0
 21 22  1  0
 21 23  1  1
 20 24  1  0
 20 25  1  0
 25 26  1  1
 25 27  1  0
 24 28  1  0
 27 28  1  0
 27 29  1  6
 28 30  1  6
 30 31  1  0
 30 32  1  0
 31 33  2  0
 31 34  1  0
 32 35  2  0
 33 35  1  0
 33 36  1  0
 34 37  2  0
 36 38  1  0
 36 39  2  0
 37 39  1  0
M  END
>  <%Rank>  (41) 
39.60396

>  <N_hits>  (41) 
2

>  <submitter_name>  (41) 
nan

>  <original SMILES>  (41) 
nan

>  <∆G_unbound>  (41) 
5.852545

>  <∆G_bound>  (41) 
-15.342186

>  <regarded>  (41) 
mArh-3ew5_A_0_A,mArh-5cb5_L_0_L

>  <ref_pdb>  (41) 
nan

>  <smiles>  (41) 
Nc1ncnc2c1ncn2C1OC(CO[P@@](=O)(O)OP(=O)(O)OC2C3C(O)CC(O)C3OC[C@@H]2O)C(O)C1O

>  <submitter_email>  (41) 
nan

>  <disregarded>  (41) 


>  <LE>  (41) 
-0.543455

>  <submitter_institution>  (41) 
nan

>  <ref_mols>  (41) 
mArh-3ew5_A_0_A,mArh-5cb5_L_0_L

>  <N_constrained_atoms>  (41) 
36.0

>  <ref_url>  (41) 
nan

>  <method>  (41) 
nan

>  <comRMSD>  (41) 
0.846361

>  <N_unconstrained_atoms>  (41) 
3.0

>  <∆∆G>  (41) 
-21.194731

>  <runtime>  (41) 
40.14933

>  <generation_date>  (41) 
nan

$$$$
mArh-1spv_0_A-mArh-1vhu_0_A
     RDKit          3D

 14 14  0  0  0  0  0  0  0  0999 V2000
    0.7770   19.5510   -6.9240 N   0  0  0  0  0  0  0  0  0  0  0  0
   -0.5040   19.1210   -7.9750 S   0  0  1  0  0  0  0  0  0  0  0  0
    0.1200   18.4730   -9.0780 O   0  0  0  0  0  0  0  0  0  0  0  0
    1.5060   20.7210   -7.3550 O   0  0  0  0  0  0  0  0  0  0  0  0
   -1.4890   18.3110   -7.2830 O   0  0  0  0  0  0  0  0  0  0  0  0
   -1.2160   20.6640   -8.5460 C   0  0  0  0  0  0  0  0  0  0  0  0
   -2.0410   21.5510   -7.6110 C   0  0  1  0  0  0  0  0  0  0  0  0
   -1.4800   22.9600   -7.6250 C   0  0  0  0  0  0  0  0  0  0  0  0
   -3.4860   21.6270   -7.8940 N   0  0  0  0  0  0  0  0  0  0  0  0
   -3.7800   22.2860   -9.1780 C   0  0  0  0  0  0  0  0  0  0  0  0
   -4.1260   22.3090   -6.7440 C   0  0  0  0  0  0  0  0  0  0  0  0
   -5.2330   22.7350   -9.2940 C   0  0  0  0  0  0  0  0  0  0  0  0
   -5.3900   23.1310   -7.0060 C   0  0  0  0  0  0  0  0  0  0  0  0
   -5.5170   23.7130   -8.3040 O   0  0  0  0  0  0  0  0  0  0  0  0
  1  2  2  0
  2  3  2  0
  1  4  1  0
  2  5  1  1
  2  6  1  0
  6  7  1  0
  7  8  1  6
  7  9  1  0
  9 10  1  0
  9 11  1  0
 10 12  1  0
 11 13  1  0
 12 14  1  0
 13 14  1  0
M  CHG  2   4  -1   5  -1
M  END
>  <%Rank>  (42) 
40.594059

>  <N_hits>  (42) 
2

>  <submitter_name>  (42) 
nan

>  <original SMILES>  (42) 
nan

>  <∆G_unbound>  (42) 
0.384435

>  <∆G_bound>  (42) 
-16.417541

>  <regarded>  (42) 
mArh-1spv_0_A,mArh-1vhu_0_A

>  <ref_pdb>  (42) 
nan

>  <smiles>  (42) 
CC(CS(=O)([O-])=N[O-])N1CCOCC1

>  <submitter_email>  (42) 
nan

>  <disregarded>  (42) 


>  <LE>  (42) 
-1.200141

>  <submitter_institution>  (42) 
nan

>  <ref_mols>  (42) 
mArh-1spv_0_A,mArh-1vhu_0_A

>  <N_constrained_atoms>  (42) 
14.0

>  <ref_url>  (42) 
nan

>  <method>  (42) 
nan

>  <comRMSD>  (42) 
0.871896

>  <N_unconstrained_atoms>  (42) 
0.0

>  <∆∆G>  (42) 
-16.801976

>  <runtime>  (42) 
21.783565

>  <generation_date>  (42) 
nan

$$$$
mArh-x0587_0_A-mArh-5cms_L_11_L
     RDKit          3D

 48 52  0  0  0  0  0  0  0  0999 V2000
   -7.8480   14.7210    3.9570 N   0  0  0  0  0  0  0  0  0  0  0  0
   -8.3210   14.8660    2.6900 C   0  0  0  0  0  0  0  0  0  0  0  0
   -9.5070   15.0970    2.4860 O   0  0  0  0  0  0  0  0  0  0  0  0
   -7.3990   14.7610    1.5410 C   0  0  0  0  0  0  0  0  0  0  0  0
   -7.7630   14.5060    0.2380 C   0  0  0  0  0  0  0  0  0  0  0  0
   -6.0430   14.9380    1.7170 C   0  0  0  0  0  0  0  0  0  0  0  0
   -6.8820   14.4360   -0.7980 N   0  0  0  0  0  0  0  0  0  0  0  0
   -5.1180   14.8790    0.7270 N   0  0  0  0  0  0  0  0  0  0  0  0
   -5.5610   14.6300   -0.5240 C   0  0  0  0  0  0  0  0  0  0  0  0
   -4.5360   14.5640   -1.6990 C   0  0  0  0  0  0  0  0  0  0  0  0
   -4.3150   13.2810   -2.1210 F   0  0  0  0  0  0  0  0  0  0  0  0
   -5.0830   15.1690   -2.7940 F   0  0  0  0  0  0  0  0  0  0  0  0
   -3.2310   15.2230   -1.4750 N   0  0  0  0  0  0  0  0  0  0  0  0
   -2.4440   14.6500   -0.3800 C   0  0  2  0  0  0  0  0  0  0  0  0
   -2.3370   15.1370   -2.6600 C   0  0  0  0  0  0  0  0  0  0  0  0
   -2.3170   15.2800    0.9910 C   0  0  1  0  0  0  0  0  0  0  0  0
   -1.0290   14.9300   -0.8530 C   0  0  2  0  0  0  0  0  0  0  0  0
   -1.1080   14.4510   -2.1750 N   0  0  0  0  0  0  0  0  0  0  0  0
   -3.5470   15.4990    1.7160 N   0  0  0  0  0  0  0  0  0  0  0  0
    0.1270   14.5760   -2.9320 C   0  0  2  0  0  0  0  0  0  0  0  0
   -1.4940   14.4370    1.7960 N   0  0  0  0  0  0  0  0  0  0  0  0
   -0.0360   14.1600   -0.1460 N   0  0  0  0  0  0  0  0  0  0  0  0
    0.2440   15.9020   -3.4720 O   0  0  0  0  0  0  0  0  0  0  0  0
    0.5410   13.5890   -4.0390 C   0  0  1  0  0  0  0  0  0  0  0  0
   -0.1380   14.2740    1.3060 C   0  0  0  0  0  0  0  0  0  0  0  0
   -0.2880   12.4380   -4.2440 O   0  0  0  0  0  0  0  0  0  0  0  0
    0.9460   15.8010   -4.7200 C   0  0  1  0  0  0  0  0  0  0  0  0
    0.4720   14.4400   -5.2800 C   0  0  1  0  0  0  0  0  0  0  0  0
    0.6460   17.0990   -5.4620 C   0  0  0  0  0  0  0  0  0  0  0  0
    1.2760   13.7980   -6.2350 O   0  0  0  0  0  0  0  0  0  0  0  0
   -0.5970   17.0110   -6.1210 O   0  0  0  0  0  0  0  0  0  0  0  0
   -1.7760   18.0680   -6.0660 P   0  0  1  0  0  0  0  0  0  0  0  0
   -2.9900   17.5590   -6.7270 O   0  0  0  0  0  0  0  0  0  0  0  0
   -1.8950   18.2520   -4.4910 O   0  0  0  0  0  0  0  0  0  0  0  0
   -1.1850   19.4170   -6.5710 O   0  0  0  0  0  0  0  0  0  0  0  0
   -0.1870   19.6240   -7.7470 P   0  0  1  0  0  0  0  0  0  0  0  0
    1.1140   20.2420   -7.4100 O   0  0  0  0  0  0  0  0  0  0  0  0
   -0.0800   18.2380   -8.5210 O   0  0  0  0  0  0  0  0  0  0  0  0
   -1.0160   20.2550   -8.9160 O   0  0  0  0  0  0  0  0  0  0  0  0
   -1.0640   21.6570   -8.9890 C   0  0  0  0  0  0  0  0  0  0  0  0
   -1.9740   22.0550  -10.1280 C   0  0  2  0  0  0  0  0  0  0  0  0
   -1.8850   23.5320  -10.4960 C   0  0  1  0  0  0  0  0  0  0  0  0
   -3.3390   21.7610   -9.7730 O   0  0  0  0  0  0  0  0  0  0  0  0
   -0.9580   23.7630  -11.5580 O   0  0  0  0  0  0  0  0  0  0  0  0
   -4.1340   22.8880  -10.0740 C   0  0  2  0  0  0  0  0  0  0  0  0
   -3.2960   23.7990  -10.9640 C   0  0  2  0  0  0  0  0  0  0  0  0
   -4.4740   23.5750   -8.8650 O   0  0  0  0  0  0  0  0  0  0  0  0
   -3.4420   23.5580  -12.3510 O   0  0  0  0  0  0  0  0  0  0  0  0
  1  2  1  0
  2  3  2  0
  2  4  1  0
  4  5  2  0
  4  6  1  0
  5  7  1  0
  6  8  2  0
  7  9  2  0
  8  9  1  0
  9 10  1  0
 10 11  1  0
 10 12  1  0
 10 13  1  0
 14 13  1  6
 13 15  1  0
 14 16  1  0
 14 17  1  0
 15 18  1  0
 17 18  1  0
 16 19  1  1
 20 18  1  6
 16 21  1  0
 17 22  1  1
 20 23  1  0
 20 24  1  0
 21 25  1  0
 22 25  1  0
 24 26  1  6
 23 27  1  0
 24 28  1  0
 27 28  1  0
 27 29  1  6
 28 30  1  6
 29 31  1  0
 31 32  1  0
 32 33  2  0
 32 34  1  1
 32 35  1  0
 35 36  1  0
 36 37  2  0
 36 38  1  6
 36 39  1  0
 39 40  1  0
 41 40  1  1
 41 42  1  0
 41 43  1  0
 42 44  1  6
 43 45  1  0
 42 46  1  0
 45 46  1  0
 45 47  1  1
 46 48  1  6
M  END
>  <%Rank>  (43) 
41.584158

>  <N_hits>  (43) 
2

>  <submitter_name>  (43) 
nan

>  <original SMILES>  (43) 
nan

>  <∆G_unbound>  (43) 
5.983857

>  <∆G_bound>  (43) 
-6.596642

>  <regarded>  (43) 
mArh-x0587_0_A,mArh-5cms_L_11_L

>  <ref_pdb>  (43) 
nan

>  <smiles>  (43) 
NC(=O)c1cnc(C(F)(F)N2CN(C3OC(CO[P@@](=O)(O)O[P@@](=O)(O)OCC4OC(O)C(O)C4O)C(O)C3O)C3NCNC(N)C32)nc1

>  <submitter_email>  (43) 
nan

>  <disregarded>  (43) 


>  <LE>  (43) 
-0.262094

>  <submitter_institution>  (43) 
nan

>  <ref_mols>  (43) 
mArh-x0587_0_A,mArh-5cms_L_11_L

>  <N_constrained_atoms>  (43) 
48.0

>  <ref_url>  (43) 
nan

>  <method>  (43) 
nan

>  <comRMSD>  (43) 
0.844596

>  <N_unconstrained_atoms>  (43) 
0.0

>  <∆∆G>  (43) 
-12.580499

>  <runtime>  (43) 
65.524263

>  <generation_date>  (43) 
nan

$$$$
mArh-x0962_0_A-mArh-x0855_0_A
     RDKit          3D

 20 21  0  0  0  0  0  0  0  0999 V2000
   -2.7770   15.1740   -2.4670 N   0  0  0  0  0  0  0  0  0  0  0  0
   -2.6930   14.2880   -1.3110 C   0  0  1  0  0  0  0  0  0  0  0  0
   -1.2650   14.2080   -0.7270 C   0  0  0  0  0  0  0  0  0  0  0  0
   -3.6820   14.7010   -0.2870 C   0  0  0  0  0  0  0  0  0  0  0  0
   -0.3380   13.3280   -1.5690 C   0  0  0  0  0  0  0  0  0  0  0  0
   -3.2940   15.0830    0.9660 N   0  0  0  0  0  0  0  0  0  0  0  0
   -5.0530   14.8010   -0.2800 C   0  0  0  0  0  0  0  0  0  0  0  0
    1.0600   13.9240   -1.7280 C   0  0  0  0  0  0  0  0  0  0  0  0
   -4.4190   15.3910    1.6690 C   0  0  0  0  0  0  0  0  0  0  0  0
   -5.4950   15.2220    0.9370 N   0  0  0  0  0  0  0  0  0  0  0  0
    1.8000   13.0220   -2.5570 O   0  0  0  0  0  0  0  0  0  0  0  0
    1.0450   12.1170   -3.2300 C   0  0  0  0  0  0  0  0  0  0  0  0
    0.6670   11.0530   -2.7420 O   0  0  0  0  0  0  0  0  0  0  0  0
    0.6980   12.5360   -4.6350 C   0  0  0  0  0  0  0  0  0  0  0  0
   -0.3630   11.6930   -5.1460 N   0  0  0  0  0  0  0  0  0  0  0  0
   -0.2700   10.7560   -6.1360 C   0  0  0  0  0  0  0  0  0  0  0  0
   -1.6020   11.7930   -4.6190 N   0  0  0  0  0  0  0  0  0  0  0  0
   -1.5220   10.2160   -6.2390 C   0  0  0  0  0  0  0  0  0  0  0  0
   -2.3090   10.8820   -5.2940 C   0  0  0  0  0  0  0  0  0  0  0  0
   -2.1000    8.8680   -7.3840 Br  0  0  0  0  0  0  0  0  0  0  0  0
  2  1  1  6
  2  3  1  0
  2  4  1  0
  3  5  1  0
  4  6  1  0
  4  7  2  0
  5  8  1  0
  6  9  1  0
  7 10  1  0
  9 10  2  0
  8 11  1  0
 11 12  1  0
 12 13  2  0
 12 14  1  0
 14 15  1  0
 15 16  1  0
 15 17  1  0
 16 18  2  0
 17 19  2  0
 18 19  1  0
 18 20  1  0
M  END
>  <%Rank>  (44) 
42.574257

>  <N_hits>  (44) 
2

>  <submitter_name>  (44) 
nan

>  <original SMILES>  (44) 
nan

>  <∆G_unbound>  (44) 
0.546456

>  <∆G_bound>  (44) 
-3.230577

>  <regarded>  (44) 
mArh-x0962_0_A,mArh-x0855_0_A

>  <ref_pdb>  (44) 
nan

>  <smiles>  (44) 
NC(CCCOC(=O)Cn1cc(Br)cn1)c1cnc[nH]1

>  <submitter_email>  (44) 
nan

>  <disregarded>  (44) 


>  <LE>  (44) 
-0.188852

>  <submitter_institution>  (44) 
nan

>  <ref_mols>  (44) 
mArh-x0962_0_A,mArh-x0855_0_A

>  <N_constrained_atoms>  (44) 
17.0

>  <ref_url>  (44) 
nan

>  <method>  (44) 
nan

>  <comRMSD>  (44) 
0.351254

>  <N_unconstrained_atoms>  (44) 
3.0

>  <∆∆G>  (44) 
-3.777034

>  <runtime>  (44) 
29.214018

>  <generation_date>  (44) 
nan

$$$$
mArh-5cms_C_2_C-mArh-5cb5_L_0_L
     RDKit          3D

 43 48  0  0  0  0  0  0  0  0999 V2000
   -1.7290   18.1810   -6.1440 P   0  0  1  0  0  0  0  0  0  0  0  0
   -1.0080   16.8320   -5.6090 O   0  0  0  0  0  0  0  0  0  0  0  0
    0.3720   16.6980   -5.2690 C   0  0  0  0  0  0  0  0  0  0  0  0
   -2.8700   17.8460   -6.9940 O   0  0  0  0  0  0  0  0  0  0  0  0
   -2.1330   18.9050   -4.7830 O   0  0  0  0  0  0  0  0  0  0  0  0
   -0.7310   19.2860   -6.6890 O   0  0  0  0  0  0  0  0  0  0  0  0
   -0.5270   20.0410   -8.0920 P   0  0  1  0  0  0  0  0  0  0  0  0
    0.6790   21.0740   -7.9730 O   0  0  0  0  0  0  0  0  0  0  0  0
   -0.0700   18.7630   -8.9340 O   0  0  0  0  0  0  0  0  0  0  0  0
   -1.8610   20.5830   -8.9570 O   0  0  0  0  0  0  0  0  0  0  0  0
    0.6730   15.3380   -4.5740 C   0  0  1  0  0  0  0  0  0  0  0  0
   -2.4120   21.9470   -9.2110 C   0  0  1  0  0  0  0  0  0  0  0  0
    0.1170   15.3870   -3.2270 O   0  0  0  0  0  0  0  0  0  0  0  0
    0.0180   14.1930   -5.0940 C   0  0  1  0  0  0  0  0  0  0  0  0
    0.9750   13.1270   -5.2040 O   0  0  0  0  0  0  0  0  0  0  0  0
   -0.9970   13.7420   -4.2480 C   0  0  2  0  0  0  0  0  0  0  0  0
   -1.1910   14.8130   -3.3870 C   0  0  1  0  0  0  0  0  0  0  0  0
   -3.6100   22.3660  -10.2200 C   0  0  1  0  0  0  0  0  0  0  0  0
   -3.1490   22.2950   -7.9280 C   0  0  1  0  0  0  0  0  0  0  0  0
   -0.5710   12.5180   -3.6530 O   0  0  0  0  0  0  0  0  0  0  0  0
   -3.4700   23.8440  -10.0410 C   0  0  2  0  0  0  0  0  0  0  0  0
   -3.9420   22.2930  -11.6510 C   0  0  1  0  0  0  0  0  0  0  0  0
   -1.9720   14.8660   -2.1700 N   0  0  0  0  0  0  0  0  0  0  0  0
   -3.7050   23.6270   -7.7930 C   0  0  1  0  0  0  0  0  0  0  0  0
   -4.2530   21.3810   -7.8900 O   0  0  0  0  0  0  0  0  0  0  0  0
   -4.2290   24.2260   -8.9740 O   0  0  0  0  0  0  0  0  0  0  0  0
   -5.2100   21.7860  -11.8830 O   0  0  0  0  0  0  0  0  0  0  0  0
   -3.8840   24.6490  -11.2730 C   0  0  1  0  0  0  0  0  0  0  0  0
   -1.6040   14.8250   -0.8500 C   0  0  0  0  0  0  0  0  0  0  0  0
   -3.3250   15.0200   -2.2240 C   0  0  0  0  0  0  0  0  0  0  0  0
   -5.2920   21.9520   -7.1280 C   0  0  2  0  0  0  0  0  0  0  0  0
   -4.9860   23.4330   -7.0010 C   0  0  2  0  0  0  0  0  0  0  0  0
   -4.3800   23.6350  -12.2330 C   0  0  0  0  0  0  0  0  0  0  0  0
   -4.8520   25.5810  -11.0010 O   0  0  0  0  0  0  0  0  0  0  0  0
   -5.3500   21.3360   -5.8530 O   0  0  0  0  0  0  0  0  0  0  0  0
   -6.1350   24.0860   -7.6000 O   0  0  0  0  0  0  0  0  0  0  0  0
   -2.7850   14.9950   -0.1230 C   0  0  0  0  0  0  0  0  0  0  0  0
   -0.2950   14.6720   -0.2730 N   0  0  0  0  0  0  0  0  0  0  0  0
   -3.8850   15.1100   -0.9230 N   0  0  0  0  0  0  0  0  0  0  0  0
   -2.6910   15.0380    1.2110 C   0  0  0  0  0  0  0  0  0  0  0  0
   -0.3990   14.7150    1.0690 C   0  0  0  0  0  0  0  0  0  0  0  0
   -3.8040   15.2540    1.9840 N   0  0  0  0  0  0  0  0  0  0  0  0
   -1.4990   14.8820    1.8160 N   0  0  0  0  0  0  0  0  0  0  0  0
  1  2  1  0
  2  3  1  0
  1  4  2  0
  1  5  1  1
  1  6  1  0
  6  7  1  0
  7  8  2  0
  7  9  1  6
  7 10  1  0
 11  3  1  6
 12 10  1  1
 11 13  1  0
 11 14  1  0
 14 15  1  1
 14 16  1  0
 13 17  1  0
 16 17  1  0
 12 18  1  0
 12 19  1  0
 16 20  1  1
 18 21  1  0
 18 22  1  6
 17 23  1  1
 19 24  1  0
 19 25  1  6
 21 26  1  1
 24 26  1  6
 22 27  1  1
 21 28  1  0
 23 29  1  0
 23 30  1  0
 25 31  1  0
 24 32  1  0
 31 32  1  0
 22 33  1  0
 28 33  1  0
 28 34  1  1
 31 35  1  1
 32 36  1  6
 29 37  2  0
 29 38  1  0
 30 39  2  0
 37 39  1  0
 37 40  1  0
 38 41  2  0
 40 42  1  0
 40 43  2  0
 41 43  1  0
M  END
>  <%Rank>  (45) 
43.564356

>  <N_hits>  (45) 
2

>  <submitter_name>  (45) 
nan

>  <original SMILES>  (45) 
nan

>  <∆G_unbound>  (45) 
5.842172

>  <∆G_bound>  (45) 
-13.945023

>  <regarded>  (45) 
mArh-5cms_C_2_C,mArh-5cb5_L_0_L

>  <ref_pdb>  (45) 
nan

>  <smiles>  (45) 
Nc1ncnc2c1ncn2C1OC(CO[P@@](=O)(O)O[P@@](=O)(O)OC2C3OC(O)C(O)C3OC3C(O)CC(O)C32)C(O)C1O

>  <submitter_email>  (45) 
nan

>  <disregarded>  (45) 


>  <LE>  (45) 
-0.460167

>  <submitter_institution>  (45) 
nan

>  <ref_mols>  (45) 
mArh-5cms_C_2_C,mArh-5cb5_L_0_L

>  <N_constrained_atoms>  (45) 
40.0

>  <ref_url>  (45) 
nan

>  <method>  (45) 
nan

>  <comRMSD>  (45) 
0.858191

>  <N_unconstrained_atoms>  (45) 
3.0

>  <∆∆G>  (45) 
-19.787195

>  <runtime>  (45) 
33.951267

>  <generation_date>  (45) 
nan

$$$$
mArh-5cb5_F_1_F-mArh-x0969_0_A
     RDKit          3D

 48 53  0  0  0  0  0  0  0  0999 V2000
   -1.6430   18.2370   -5.8840 P   0  0  1  0  0  0  0  0  0  0  0  0
   -0.9620   17.0660   -5.0520 O   0  0  0  0  0  0  0  0  0  0  0  0
    0.4590   16.9930   -5.0920 C   0  0  0  0  0  0  0  0  0  0  0  0
   -2.6720   17.7800   -6.8640 O   0  0  0  0  0  0  0  0  0  0  0  0
   -2.2430   19.2080   -4.7730 O   0  0  0  0  0  0  0  0  0  0  0  0
   -0.4160   19.0540   -6.4390 O   0  0  0  0  0  0  0  0  0  0  0  0
   -0.2680   19.6090   -7.8920 P   0  0  2  0  0  0  0  0  0  0  0  0
   -1.6520   20.2100   -8.3330 O   0  0  0  0  0  0  0  0  0  0  0  0
    0.2620   18.6180   -8.8480 O   0  0  0  0  0  0  0  0  0  0  0  0
    0.7010   20.8820   -7.7700 O   0  0  0  0  0  0  0  0  0  0  0  0
    0.8890   15.6900   -4.4390 C   0  0  1  0  0  0  0  0  0  0  0  0
   -1.9090   21.5860   -8.3260 C   0  0  0  0  0  0  0  0  0  0  0  0
    0.2410   15.5670   -3.1530 O   0  0  0  0  0  0  0  0  0  0  0  0
    0.4930   14.4360   -5.2350 C   0  0  1  0  0  0  0  0  0  0  0  0
    1.4700   13.4080   -5.2020 O   0  0  0  0  0  0  0  0  0  0  0  0
   -0.7800   14.0330   -4.5360 C   0  0  2  0  0  0  0  0  0  0  0  0
   -0.2600   14.2210   -3.1190 C   0  0  2  0  0  0  0  0  0  0  0  0
   -3.1680   21.8070   -9.1460 C   0  0  1  0  0  0  0  0  0  0  0  0
   -1.1130   12.6530   -4.7930 O   0  0  0  0  0  0  0  0  0  0  0  0
   -4.2510   21.0950   -8.5370 O   0  0  0  0  0  0  0  0  0  0  0  0
   -3.6320   23.2350   -9.1960 C   0  0  1  0  0  0  0  0  0  0  0  0
   -1.2750   14.0160   -2.1340 N   0  0  0  0  0  0  0  0  0  0  0  0
   -4.5150   23.5240  -10.2680 O   0  0  0  0  0  0  0  0  0  0  0  0
   -1.0680   14.5950   -0.8350 C   0  0  1  0  0  0  0  0  0  0  0  0
   -4.2390   23.2720   -7.8460 C   0  0  2  0  0  0  0  0  0  0  0  0
   -5.0920   22.0150   -7.8630 C   0  0  2  0  0  0  0  0  0  0  0  0
   -2.6420   14.2970   -2.5870 C   0  0  0  0  0  0  0  0  0  0  0  0
   -5.0090   24.4310   -7.7240 O   0  0  0  0  0  0  0  0  0  0  0  0
   -5.3630   21.5460   -6.5280 O   0  0  0  0  0  0  0  0  0  0  0  0
   -2.4820   14.8370   -0.2940 C   0  0  1  0  0  0  0  0  0  0  0  0
   -0.2800   13.7720    0.0330 N   0  0  0  0  0  0  0  0  0  0  0  0
   -3.4700   14.3420   -1.3040 C   0  0  2  0  0  0  0  0  0  0  0  0
   -5.1770   24.4730   -6.4300 C   0  0  0  0  0  0  0  0  0  0  0  0
   -2.6190   14.8140    1.1940 C   0  0  1  0  0  0  0  0  0  0  0  0
   -0.1200   14.4660    1.2820 C   0  0  0  0  0  0  0  0  0  0  0  0
   -4.3750   13.1560   -1.0140 C   0  0  0  0  0  0  0  0  0  0  0  0
   -4.3150   15.5620   -1.3710 C   0  0  0  0  0  0  0  0  0  0  0  0
   -4.4960   25.6200   -5.7840 C   0  0  0  0  0  0  0  0  0  0  0  0
   -5.7720   23.6010   -5.8930 O   0  0  0  0  0  0  0  0  0  0  0  0
   -3.1190   13.6490    1.8240 N   0  0  0  0  0  0  0  0  0  0  0  0
   -1.3390   15.0630    1.7740 N   0  0  0  0  0  0  0  0  0  0  0  0
   -5.5540   13.4550   -0.0900 C   0  0  2  0  0  0  0  0  0  0  0  0
   -5.2950   15.7340   -0.5260 C   0  0  0  0  0  0  0  0  0  0  0  0
   -6.8730   13.1920   -0.6760 N   0  0  0  0  0  0  0  0  0  0  0  0
   -5.6020   14.8040    0.4320 N   0  0  0  0  0  0  0  0  0  0  0  0
   -6.9710   14.7250    0.9730 C   0  0  1  0  0  0  0  0  0  0  0  0
   -7.6770   13.5260    0.5340 N   0  0  0  0  0  0  0  0  0  0  0  0
   -7.1520   14.7400    2.4120 N   0  0  0  0  0  0  0  0  0  0  0  0
  1  2  1  0
  2  3  1  0
  1  4  2  0
  1  5  1  1
  1  6  1  0
  6  7  1  0
  7  8  1  0
  7  9  2  0
  7 10  1  1
 11  3  1  6
  8 12  1  0
 11 13  1  0
 11 14  1  0
 14 15  1  1
 14 16  1  0
 13 17  1  0
 16 17  1  0
 18 12  1  1
 16 19  1  1
 18 20  1  0
 18 21  1  0
 17 22  1  1
 21 23  1  6
 22 24  1  0
 21 25  1  0
 20 26  1  0
 25 26  1  0
 22 27  1  0
 25 28  1  6
 26 29  1  1
 24 30  1  0
 24 31  1  1
 32 27  1  6
 30 32  1  0
 28 33  1  0
 30 34  1  1
 31 35  1  0
 32 36  1  0
 32 37  1  0
 33 38  1  0
 33 39  2  0
 34 40  1  1
 34 41  1  0
 35 41  1  0
 42 36  1  6
 37 43  2  0
 42 44  1  0
 42 45  1  0
 43 45  1  0
 45 46  1  0
 44 47  1  0
 46 47  1  0
 46 48  1  1
M  END
>  <%Rank>  (46) 
44.554455

>  <N_hits>  (46) 
2

>  <submitter_name>  (46) 
nan

>  <original SMILES>  (46) 
nan

>  <∆G_unbound>  (46) 
5.722082

>  <∆G_bound>  (46) 
-10.040649

>  <regarded>  (46) 
mArh-5cb5_F_1_F,mArh-x0969_0_A

>  <ref_pdb>  (46) 
nan

>  <smiles>  (46) 
CC(=O)OC1C(O)OC(CO[P@@](=O)(O)O[P@](=O)(O)OCC2OC(N3CC4(C=CN5C(N)NNC5C4)C4C(N)NCNC43)C(O)C2O)C1O

>  <submitter_email>  (46) 
nan

>  <disregarded>  (46) 


>  <LE>  (46) 
-0.32839

>  <submitter_institution>  (46) 
nan

>  <ref_mols>  (46) 
mArh-5cb5_F_1_F,mArh-x0969_0_A

>  <N_constrained_atoms>  (46) 
48.0

>  <ref_url>  (46) 
nan

>  <method>  (46) 
nan

>  <comRMSD>  (46) 
0.892037

>  <N_unconstrained_atoms>  (46) 
0.0

>  <∆∆G>  (46) 
-15.762731

>  <runtime>  (46) 
55.316548

>  <generation_date>  (46) 
nan

$$$$
mArh-x0950_0_A-mArh-x0727_0_A
     RDKit          3D

 13 13  0  0  0  0  0  0  0  0999 V2000
    0.8790   13.8690   -4.9180 C   0  0  0  0  0  0  0  0  0  0  0  0
    1.1100   12.3920   -4.6330 C   0  0  2  0  0  0  0  0  0  0  0  0
    0.2130   11.6010   -5.4630 O   0  0  0  0  0  0  0  0  0  0  0  0
    0.8730   12.1100   -3.1450 C   0  0  0  0  0  0  0  0  0  0  0  0
    0.3570   11.0920   -2.7230 O   0  0  0  0  0  0  0  0  0  0  0  0
    1.2930   13.1060   -2.3290 O   0  0  0  0  0  0  0  0  0  0  0  0
    0.7630   11.2580   -6.6680 C   0  0  0  0  0  0  0  0  0  0  0  0
    1.6960   11.8580   -7.1180 O   0  0  0  0  0  0  0  0  0  0  0  0
    0.1070   10.0430   -7.3430 C   0  0  0  0  0  0  0  0  0  0  0  0
   -1.1920   10.5360   -8.0390 C   0  0  0  0  0  0  0  0  0  0  0  0
   -0.3380    8.9290   -6.3780 C   0  0  0  0  0  0  0  0  0  0  0  0
   -2.1270    9.3390   -7.9510 C   0  0  0  0  0  0  0  0  0  0  0  0
   -1.8260    8.6780   -6.5960 C   0  0  0  0  0  0  0  0  0  0  0  0
  2  1  1  1
  2  3  1  0
  2  4  1  0
  4  5  2  0
  4  6  1  0
  3  7  1  0
  7  8  2  0
  7  9  1  0
  9 10  1  0
  9 11  1  0
 10 12  1  0
 11 13  1  0
 12 13  1  0
M  END
>  <%Rank>  (47) 
45.544554

>  <N_hits>  (47) 
2

>  <submitter_name>  (47) 
nan

>  <original SMILES>  (47) 
nan

>  <∆G_unbound>  (47) 
0.732546

>  <∆G_bound>  (47) 
-1.756521

>  <regarded>  (47) 
mArh-x0950_0_A,mArh-x0727_0_A

>  <ref_pdb>  (47) 
nan

>  <smiles>  (47) 
C[C@H](OC(=O)C1CCCC1)C(=O)O

>  <submitter_email>  (47) 
nan

>  <disregarded>  (47) 


>  <LE>  (47) 
-0.191467

>  <submitter_institution>  (47) 
nan

>  <ref_mols>  (47) 
mArh-x0950_0_A,mArh-x0727_0_A

>  <N_constrained_atoms>  (47) 
13.0

>  <ref_url>  (47) 
nan

>  <method>  (47) 
nan

>  <comRMSD>  (47) 
0.358917

>  <N_unconstrained_atoms>  (47) 
0.0

>  <∆∆G>  (47) 
-2.489067

>  <runtime>  (47) 
15.25502

>  <generation_date>  (47) 
nan

$$$$
mArh-5fud_B_0_B-mArh-x0685_0_A
     RDKit          3D

 28 29  0  0  0  0  0  0  0  0999 V2000
   -0.8780   20.1620   -6.3080 O   0  0  0  0  0  0  0  0  0  0  0  0
   -0.7130   20.2030   -7.7270 S   0  0  0  0  0  0  0  0  0  0  0  0
    0.4720   20.7010   -8.3510 O   0  0  0  0  0  0  0  0  0  0  0  0
   -1.0010   18.6820   -8.1280 O   0  0  0  0  0  0  0  0  0  0  0  0
   -2.1580   20.9660   -8.3540 C   0  0  0  0  0  0  0  0  0  0  0  0
   -2.3230   22.3630   -7.9060 C   0  0  0  0  0  0  0  0  0  0  0  0
   -1.3800   18.1150   -6.8660 C   0  0  0  0  0  0  0  0  0  0  0  0
   -0.1280   17.8850   -6.0260 C   0  0  0  0  0  0  0  0  0  0  0  0
   -3.7370   22.6500   -7.8770 N   0  0  0  0  0  0  0  0  0  0  0  0
   -0.4550   17.4230   -4.6140 C   0  0  0  0  0  0  0  0  0  0  0  0
   -4.3480   22.7930   -9.2100 C   0  0  0  0  0  0  0  0  0  0  0  0
   -4.0100   23.8090   -7.0840 C   0  0  0  0  0  0  0  0  0  0  0  0
   -0.7060   15.9110   -4.5030 C   0  0  0  0  0  0  0  0  0  0  0  0
   -5.8690   22.9620   -9.1460 C   0  0  0  0  0  0  0  0  0  0  0  0
   -5.5030   23.8760   -6.9380 C   0  0  0  0  0  0  0  0  0  0  0  0
   -2.1800   15.5010   -4.6670 C   0  0  0  0  0  0  0  0  0  0  0  0
   -6.2590   23.9230   -8.1610 O   0  0  0  0  0  0  0  0  0  0  0  0
   -2.8760   15.2780   -3.3900 C   0  0  0  0  0  0  0  0  0  0  0  0
   -3.4420   15.1600   -2.3370 C   0  0  0  0  0  0  0  0  0  0  0  0
   -4.1180   15.0990   -1.0850 C   0  0  0  0  0  0  0  0  0  0  0  0
   -3.4220   15.1570    0.1160 C   0  0  0  0  0  0  0  0  0  0  0  0
   -5.4960   14.9860   -1.0290 C   0  0  0  0  0  0  0  0  0  0  0  0
   -4.1340   15.1090    1.3090 C   0  0  0  0  0  0  0  0  0  0  0  0
   -6.2080   14.9320    0.1180 N   0  0  0  0  0  0  0  0  0  0  0  0
   -5.5230   14.9990    1.2690 C   0  0  0  0  0  0  0  0  0  0  0  0
   -6.2870   14.9570    2.4360 N   0  0  0  0  0  0  0  0  0  0  0  0
   -7.7290   14.8030    2.3930 C   0  0  0  0  0  0  0  0  0  0  0  0
   -8.1120   13.4880    3.0530 C   0  0  0  0  0  0  0  0  0  0  0  0
  1  2  2  0
  2  3  2  0
  2  4  1  0
  2  5  1  0
  5  6  1  0
  4  7  1  0
  7  8  1  0
  6  9  1  0
  8 10  1  0
  9 11  1  0
  9 12  1  0
 10 13  1  0
 11 14  1  0
 12 15  1  0
 13 16  1  0
 14 17  1  0
 15 17  1  0
 16 18  1  0
 18 19  3  0
 19 20  1  0
 20 21  2  0
 20 22  1  0
 21 23  1  0
 22 24  2  0
 23 25  2  0
 24 25  1  0
 25 26  1  0
 26 27  1  0
 27 28  1  0
M  END
>  <%Rank>  (48) 
46.534653

>  <N_hits>  (48) 
2

>  <submitter_name>  (48) 
nan

>  <original SMILES>  (48) 
nan

>  <∆G_unbound>  (48) 
0.098233

>  <∆G_bound>  (48) 
-10.806231

>  <regarded>  (48) 
mArh-5fud_B_0_B,mArh-x0685_0_A

>  <ref_pdb>  (48) 
nan

>  <smiles>  (48) 
CCNc1ccc(C#CCCCCCOS(=O)(=O)CCN2CCOCC2)cn1

>  <submitter_email>  (48) 
nan

>  <disregarded>  (48) 


>  <LE>  (48) 
-0.389445

>  <submitter_institution>  (48) 
nan

>  <ref_mols>  (48) 
mArh-5fud_B_0_B,mArh-x0685_0_A

>  <N_constrained_atoms>  (48) 
23.0

>  <ref_url>  (48) 
nan

>  <method>  (48) 
nan

>  <comRMSD>  (48) 
0.572136

>  <N_unconstrained_atoms>  (48) 
5.0

>  <∆∆G>  (48) 
-10.904464

>  <runtime>  (48) 
42.984722

>  <generation_date>  (48) 
nan

$$$$
mArh-5cms_D_3_D-mArh-5cb5_M_1_M
     RDKit          3D

 39 42  0  0  0  0  0  0  0  0999 V2000
   -1.6990   18.0490   -6.3350 P   0  0  0  0  0  0  0  0  0  0  0  0
   -0.8320   16.7440   -5.7940 O   0  0  0  0  0  0  0  0  0  0  0  0
    0.3010   16.9560   -5.0610 C   0  0  0  0  0  0  0  0  0  0  0  0
   -2.9470   17.1520   -6.2120 O   0  0  0  0  0  0  0  0  0  0  0  0
   -2.2700   19.0930   -5.1810 O   0  0  0  0  0  0  0  0  0  0  0  0
   -0.5270   19.0050   -6.6450 O   0  0  0  0  0  0  0  0  0  0  0  0
   -0.3550   19.8770   -7.9280 P   0  0  0  0  0  0  0  0  0  0  0  0
   -1.7970   20.5780   -7.7720 O   0  0  0  0  0  0  0  0  0  0  0  0
   -0.1460   18.4880   -8.7990 O   0  0  0  0  0  0  0  0  0  0  0  0
    1.0270   20.6500   -7.4020 O   0  0  0  0  0  0  0  0  0  0  0  0
    0.7290   15.7870   -4.1690 C   0  0  1  0  0  0  0  0  0  0  0  0
   -2.0950   21.8860   -8.0630 C   0  0  0  0  0  0  0  0  0  0  0  0
    0.0140   15.6600   -2.9620 O   0  0  0  0  0  0  0  0  0  0  0  0
    0.5690   14.3470   -4.6620 C   0  0  2  0  0  0  0  0  0  0  0  0
    1.0080   14.1040   -5.9400 O   0  0  0  0  0  0  0  0  0  0  0  0
   -1.2140   15.0610   -3.3740 C   0  0  1  0  0  0  0  0  0  0  0  0
   -0.9190   14.1510   -4.5200 C   0  0  2  0  0  0  0  0  0  0  0  0
   -3.4260   21.8170   -8.8140 C   0  0  1  0  0  0  0  0  0  0  0  0
   -1.1130   12.7940   -4.2270 O   0  0  0  0  0  0  0  0  0  0  0  0
   -2.0500   14.5330   -2.3520 N   0  0  0  0  0  0  0  0  0  0  0  0
   -4.1690   21.0620   -7.9640 O   0  0  0  0  0  0  0  0  0  0  0  0
   -4.3430   22.9890   -8.9390 C   0  0  2  0  0  0  0  0  0  0  0  0
   -3.8120   24.1220   -9.5020 O   0  0  0  0  0  0  0  0  0  0  0  0
   -1.6890   14.3220   -0.9620 C   0  0  2  0  0  0  0  0  0  0  0  0
   -3.4690   14.7120   -2.4040 C   0  0  0  0  0  0  0  0  0  0  0  0
   -4.7430   23.2110   -7.5110 C   0  0  2  0  0  0  0  0  0  0  0  0
   -5.1540   21.7970   -7.3290 C   0  0  2  0  0  0  0  0  0  0  0  0
   -5.8220   24.1080   -7.4320 O   0  0  0  0  0  0  0  0  0  0  0  0
   -5.2610   21.4820   -5.9610 O   0  0  0  0  0  0  0  0  0  0  0  0
   -2.9490   14.9550   -0.3040 C   0  0  1  0  0  0  0  0  0  0  0  0
   -0.5090   14.9220   -0.4590 N   0  0  0  0  0  0  0  0  0  0  0  0
   -3.9140   14.3020   -1.0660 N   0  0  0  0  0  0  0  0  0  0  0  0
   -6.8010   23.9380   -8.4020 C   0  0  0  0  0  0  0  0  0  0  0  0
   -2.9170   14.7330    1.1660 C   0  0  2  0  0  0  0  0  0  0  0  0
   -0.4990   14.7190    0.9610 C   0  0  0  0  0  0  0  0  0  0  0  0
   -3.9660   15.5620    1.7500 N   0  0  0  0  0  0  0  0  0  0  0  0
   -7.6820   24.9600   -9.0210 C   0  0  0  0  0  0  0  0  0  0  0  0
   -7.0160   22.7790   -8.8190 O   0  0  0  0  0  0  0  0  0  0  0  0
   -1.6500   15.3110    1.5880 N   0  0  0  0  0  0  0  0  0  0  0  0
  1  2  1  0
  2  3  1  0
  1  4  1  0
  1  5  1  0
  1  6  1  0
  6  7  1  0
  7  8  1  0
  7  9  1  0
  7 10  1  0
 11  3  1  6
  8 12  1  0
 11 13  1  0
 11 14  1  0
 14 15  1  6
 13 16  1  0
 14 17  1  0
 16 17  1  0
 18 12  1  1
 17 19  1  1
 16 20  1  1
 18 21  1  0
 18 22  1  0
 22 23  1  1
 20 24  1  0
 20 25  1  0
 22 26  1  0
 21 27  1  0
 26 27  1  0
 26 28  1  6
 27 29  1  1
 24 30  1  0
 24 31  1  1
 25 32  1  0
 30 32  1  6
 28 33  1  0
 30 34  1  0
 31 35  1  0
 34 36  1  1
 33 37  1  0
 33 38  2  0
 34 39  1  0
 35 39  1  0
M  CHG  2   4  -1   9  -1
M  END
>  <%Rank>  (49) 
47.524752

>  <N_hits>  (49) 
2

>  <submitter_name>  (49) 
nan

>  <original SMILES>  (49) 
nan

>  <∆G_unbound>  (49) 
3.469187

>  <∆G_bound>  (49) 
-6.778874

>  <regarded>  (49) 
mArh-5cms_D_3_D,mArh-5cb5_M_1_M

>  <ref_pdb>  (49) 
nan

>  <smiles>  (49) 
CC(=O)OC1C(O)OC(CO[PH]([O-])(O)O[PH]([O-])(O)OCC2OC(N3CNC4C(N)NCNC43)C(O)C2O)C1O

>  <submitter_email>  (49) 
nan

>  <disregarded>  (49) 


>  <LE>  (49) 
-0.262771

>  <submitter_institution>  (49) 
nan

>  <ref_mols>  (49) 
mArh-5cms_D_3_D,mArh-5cb5_M_1_M

>  <N_constrained_atoms>  (49) 
39.0

>  <ref_url>  (49) 
nan

>  <method>  (49) 
nan

>  <comRMSD>  (49) 
0.809369

>  <N_unconstrained_atoms>  (49) 
0.0

>  <∆∆G>  (49) 
-10.248061

>  <runtime>  (49) 
45.951812

>  <generation_date>  (49) 
nan

$$$$
mArh-x0855_0_A-mArh-x0910_1_A
     RDKit          3D

 19 20  0  0  0  0  0  0  0  0999 V2000
    2.2330   12.5600   -2.8340 O   0  0  0  0  0  0  0  0  0  0  0  0
    0.8740   12.3010   -3.1430 C   0  0  0  0  0  0  0  0  0  0  0  0
    0.6480   12.5900   -4.6420 C   0  0  0  0  0  0  0  0  0  0  0  0
    0.6740   10.9310   -2.8500 O   0  0  0  0  0  0  0  0  0  0  0  0
   -0.0060   13.1570   -2.2190 C   0  0  0  0  0  0  0  0  0  0  0  0
   -1.3850   12.5650   -1.9410 C   0  0  0  0  0  0  0  0  0  0  0  0
   -0.3730   11.7130   -5.1650 N   0  0  0  0  0  0  0  0  0  0  0  0
   -2.3610   13.5280   -2.5840 C   0  0  0  0  0  0  0  0  0  0  0  0
   -0.2090   10.7900   -6.1620 C   0  0  0  0  0  0  0  0  0  0  0  0
   -1.6260   11.7930   -4.6210 N   0  0  0  0  0  0  0  0  0  0  0  0
   -2.6380   14.6070   -1.6490 N   0  0  0  0  0  0  0  0  0  0  0  0
   -1.5650   10.1430   -6.2930 C   0  0  0  0  0  0  0  0  0  0  0  0
   -2.3830   10.8830   -5.2470 C   0  0  0  0  0  0  0  0  0  0  0  0
   -2.1320    8.7800   -7.4280 Br  0  0  0  0  0  0  0  0  0  0  0  0
   -1.8290   14.7420   -0.5790 C   0  0  0  0  0  0  0  0  0  0  0  0
   -2.2470   14.7010    0.7180 N   0  0  0  0  0  0  0  0  0  0  0  0
   -0.5320   14.9340   -0.6070 N   0  0  0  0  0  0  0  0  0  0  0  0
   -1.2150   14.8650    1.5570 N   0  0  0  0  0  0  0  0  0  0  0  0
   -0.2020   15.0080    0.7090 C   0  0  0  0  0  0  0  0  0  0  0  0
  2  1  1  0
  2  3  1  0
  2  4  1  0
  2  5  1  0
  5  6  1  0
  3  7  1  0
  6  8  1  0
  7  9  1  0
  7 10  1  0
  8 11  1  0
  9 12  2  0
 10 13  2  0
 12 13  1  0
 12 14  1  0
 11 15  1  0
 15 16  1  0
 15 17  2  0
 16 18  1  0
 17 19  1  0
 18 19  2  0
M  END
>  <%Rank>  (50) 
48.514851

>  <N_hits>  (50) 
2

>  <submitter_name>  (50) 
nan

>  <original SMILES>  (50) 
nan

>  <∆G_unbound>  (50) 
0.32798

>  <∆G_bound>  (50) 
-3.488263

>  <regarded>  (50) 
mArh-x0855_0_A,mArh-x0910_1_A

>  <ref_pdb>  (50) 
nan

>  <smiles>  (50) 
OC(O)(CCCNc1ncn[nH]1)Cn1cc(Br)cn1

>  <submitter_email>  (50) 
nan

>  <disregarded>  (50) 


>  <LE>  (50) 
-0.200855

>  <submitter_institution>  (50) 
nan

>  <ref_mols>  (50) 
mArh-x0855_0_A,mArh-x0910_1_A

>  <N_constrained_atoms>  (50) 
16.0

>  <ref_url>  (50) 
nan

>  <method>  (50) 
nan

>  <comRMSD>  (50) 
0.364924

>  <N_unconstrained_atoms>  (50) 
3.0

>  <∆∆G>  (50) 
-3.816244

>  <runtime>  (50) 
19.319236

>  <generation_date>  (50) 
nan

$$$$
mArh-x0722_0_A-mArh-5cb5_I_0_I
     RDKit          3D

 42 45  0  0  0  0  0  0  0  0999 V2000
   -4.4610   15.8190    2.3610 C   0  0  0  0  0  0  0  0  0  0  0  0
   -3.8880   14.8420    1.3780 C   0  0  2  0  0  0  0  0  0  0  0  0
   -2.5570   14.5690    1.9350 N   0  0  0  0  0  0  0  0  0  0  0  0
   -3.8440   15.3940   -0.0700 C   0  0  2  0  0  0  0  0  0  0  0  0
   -5.1700   15.7100   -0.7860 C   0  0  0  0  0  0  0  0  0  0  0  0
   -1.6110   13.9760    0.9900 N   0  0  0  0  0  0  0  0  0  0  0  0
   -3.0840   14.5200   -0.9340 N   0  0  0  0  0  0  0  0  0  0  0  0
   -0.2580   14.0730    1.5070 C   0  0  0  0  0  0  0  0  0  0  0  0
   -6.3410   14.7850   -0.5360 C   0  0  0  0  0  0  0  0  0  0  0  0
   -1.7560   14.3230   -0.4130 C   0  0  2  0  0  0  0  0  0  0  0  0
   -2.8500   15.0640   -2.2590 C   0  0  0  0  0  0  0  0  0  0  0  0
   -7.5200   15.0650   -0.7180 O   0  0  0  0  0  0  0  0  0  0  0  0
   -6.0080   13.5470   -0.0670 N   0  0  0  0  0  0  0  0  0  0  0  0
   -0.9980   13.2870   -1.2640 C   0  0  0  0  0  0  0  0  0  0  0  0
   -1.1730   15.6700   -0.8280 C   0  0  0  0  0  0  0  0  0  0  0  0
   -1.5360   15.6980   -2.2300 N   0  0  0  0  0  0  0  0  0  0  0  0
   -0.5210   15.0190   -3.0010 C   0  0  2  0  0  0  0  0  0  0  0  0
    0.6140   15.8730   -3.1820 O   0  0  0  0  0  0  0  0  0  0  0  0
   -0.9010   14.3490   -4.3480 C   0  0  2  0  0  0  0  0  0  0  0  0
   -1.0800   12.9200   -4.2970 O   0  0  0  0  0  0  0  0  0  0  0  0
    0.9360   15.9210   -4.5720 C   0  0  1  0  0  0  0  0  0  0  0  0
    0.3420   14.6410   -5.1710 C   0  0  1  0  0  0  0  0  0  0  0  0
    0.5570   17.3210   -5.1030 C   0  0  0  0  0  0  0  0  0  0  0  0
    1.2330   13.5440   -5.2450 O   0  0  0  0  0  0  0  0  0  0  0  0
   -0.2890   17.3300   -6.2470 O   0  0  0  0  0  0  0  0  0  0  0  0
   -1.6000   18.2220   -6.0630 P   0  0  2  0  0  0  0  0  0  0  0  0
   -2.0030   18.3110   -4.6820 O   0  0  0  0  0  0  0  0  0  0  0  0
   -2.7030   17.4480   -6.8680 O   0  0  0  0  0  0  0  0  0  0  0  0
   -1.3510   19.5830   -6.8080 O   0  0  0  0  0  0  0  0  0  0  0  0
   -0.1470   19.9000   -7.7820 P   0  0  1  0  0  0  0  0  0  0  0  0
    1.1970   20.0760   -7.1950 O   0  0  0  0  0  0  0  0  0  0  0  0
   -0.1870   18.6890   -8.8270 O   0  0  0  0  0  0  0  0  0  0  0  0
   -0.7360   21.1750   -8.5400 O   0  0  0  0  0  0  0  0  0  0  0  0
   -2.1230   21.1760   -8.6730 C   0  0  0  0  0  0  0  0  0  0  0  0
   -2.9090   22.1090   -7.8140 C   0  0  1  0  0  0  0  0  0  0  0  0
   -3.7890   23.2430   -8.3810 C   0  0  1  0  0  0  0  0  0  0  0  0
   -3.8690   21.1950   -7.2410 O   0  0  0  0  0  0  0  0  0  0  0  0
   -4.5020   23.0700   -9.6160 O   0  0  0  0  0  0  0  0  0  0  0  0
   -5.1200   21.8500   -7.1780 C   0  0  2  0  0  0  0  0  0  0  0  0
   -4.7300   23.3070   -7.1840 C   0  0  2  0  0  0  0  0  0  0  0  0
   -5.7840   21.5080   -5.9600 O   0  0  0  0  0  0  0  0  0  0  0  0
   -5.8900   24.1180   -7.3270 O   0  0  0  0  0  0  0  0  0  0  0  0
  2  1  1  1
  2  3  1  0
  2  4  1  0
  4  5  1  6
  3  6  1  0
  4  7  1  0
  6  8  1  0
  5  9  1  0
  6 10  1  0
  7 10  1  0
  7 11  1  0
  9 12  2  0
  9 13  1  0
 10 14  1  6
 10 15  1  0
 11 16  1  0
 15 16  1  0
 17 16  1  6
 17 18  1  0
 17 19  1  0
 19 20  1  1
 18 21  1  0
 19 22  1  0
 21 22  1  0
 21 23  1  6
 22 24  1  1
 23 25  1  0
 25 26  1  0
 26 27  2  0
 26 28  1  6
 26 29  1  0
 29 30  1  0
 30 31  2  0
 30 32  1  6
 30 33  1  0
 33 34  1  0
 35 34  1  6
 35 36  1  0
 35 37  1  0
 36 38  1  6
 37 39  1  0
 36 40  1  0
 39 40  1  0
 39 41  1  1
 40 42  1  6
M  END
>  <%Rank>  (51) 
49.50495

>  <N_hits>  (51) 
2

>  <submitter_name>  (51) 
nan

>  <original SMILES>  (51) 
nan

>  <∆G_unbound>  (51) 
5.73055

>  <∆G_bound>  (51) 
-14.307175

>  <regarded>  (51) 
mArh-x0722_0_A,mArh-5cb5_I_0_I

>  <ref_pdb>  (51) 
nan

>  <smiles>  (51) 
CC1NN(C)C2(C)CN(C3OC(CO[P@@](=O)(O)O[P@@](=O)(O)OCC4OC(O)C(O)C4O)C(O)C3O)CN2C1CC(N)=O

>  <submitter_email>  (51) 
nan

>  <disregarded>  (51) 


>  <LE>  (51) 
-0.477089

>  <submitter_institution>  (51) 
nan

>  <ref_mols>  (51) 
mArh-x0722_0_A,mArh-5cb5_I_0_I

>  <N_constrained_atoms>  (51) 
42.0

>  <ref_url>  (51) 
nan

>  <method>  (51) 
nan

>  <comRMSD>  (51) 
0.961508

>  <N_unconstrained_atoms>  (51) 
0.0

>  <∆∆G>  (51) 
-20.037725

>  <runtime>  (51) 
33.380395

>  <generation_date>  (51) 
nan

$$$$
mArh-2fav_B_0_B-mArh-x0918_0_B
     RDKit          3D

 44 48  0  0  0  0  0  0  0  0999 V2000
   -1.2150   18.1900   -5.8340 P   0  0  0  0  0  0  0  0  0  0  0  0
   -0.5160   16.8040   -5.4590 O   0  0  0  0  0  0  0  0  0  0  0  0
    0.8270   16.7880   -4.9990 C   0  0  0  0  0  0  0  0  0  0  0  0
   -1.7870   18.7660   -4.5930 O   0  0  0  0  0  0  0  0  0  0  0  0
   -2.4660   17.9240   -6.7990 O   0  0  0  0  0  0  0  0  0  0  0  0
   -0.2770   19.3450   -6.3420 O   0  0  0  0  0  0  0  0  0  0  0  0
   -0.0680   19.8590   -7.8240 P   0  0  0  0  0  0  0  0  0  0  0  0
    1.1850   20.8230   -7.5340 O   0  0  0  0  0  0  0  0  0  0  0  0
    0.1780   18.6700   -8.6740 O   0  0  0  0  0  0  0  0  0  0  0  0
   -1.6790   20.3130   -7.7680 O   0  0  0  0  0  0  0  0  0  0  0  0
    1.1650   15.5950   -4.2050 C   0  0  1  0  0  0  0  0  0  0  0  0
   -1.6280   21.6160   -7.2530 C   0  0  0  0  0  0  0  0  0  0  0  0
    0.2590   15.4810   -3.0980 O   0  0  0  0  0  0  0  0  0  0  0  0
    1.1480   14.3350   -4.8600 C   0  0  1  0  0  0  0  0  0  0  0  0
    2.3540   13.7020   -4.8320 O   0  0  0  0  0  0  0  0  0  0  0  0
    0.1820   13.4130   -4.1800 C   0  0  1  0  0  0  0  0  0  0  0  0
   -0.1360   14.1460   -2.9230 C   0  0  2  0  0  0  0  0  0  0  0  0
   -3.0680   22.0910   -7.0400 C   0  0  1  0  0  0  0  0  0  0  0  0
   -0.7660   12.9750   -5.0170 O   0  0  0  0  0  0  0  0  0  0  0  0
   -3.5540   23.1910   -7.6490 C   0  0  1  0  0  0  0  0  0  0  0  0
   -4.0830   21.2250   -7.4100 O   0  0  0  0  0  0  0  0  0  0  0  0
   -1.3560   14.1060   -2.2480 N   0  0  0  0  0  0  0  0  0  0  0  0
   -4.3070   22.8870   -8.7750 O   0  0  0  0  0  0  0  0  0  0  0  0
   -5.0900   21.9250   -6.6660 C   0  0  0  0  0  0  0  0  0  0  0  0
   -4.5860   23.3320   -6.5750 C   0  0  2  0  0  0  0  0  0  0  0  0
   -1.3270   14.6150   -0.8940 C   0  0  1  0  0  0  0  0  0  0  0  0
   -2.5030   14.8010   -2.8070 C   0  0  0  0  0  0  0  0  0  0  0  0
   -5.4840   24.3030   -6.8650 O   0  0  0  0  0  0  0  0  0  0  0  0
   -5.2200   23.6730   -9.3630 C   0  0  0  0  0  0  0  0  0  0  0  0
   -2.7220   14.5760   -0.5450 C   0  0  2  0  0  0  0  0  0  0  0  0
   -0.5070   13.8490    0.0140 N   0  0  0  0  0  0  0  0  0  0  0  0
   -3.2690   15.3050   -1.6630 N   0  0  0  0  0  0  0  0  0  0  0  0
   -5.0030   24.3800  -10.5700 C   0  0  0  0  0  0  0  0  0  0  0  0
   -2.9210   15.1590    0.8240 C   0  0  1  0  0  0  0  0  0  0  0  0
   -0.7040   14.4090    1.3270 C   0  0  0  0  0  0  0  0  0  0  0  0
   -4.2970   14.9090    1.2160 N   0  0  0  0  0  0  0  0  0  0  0  0
   -3.7140   24.6730  -11.1410 N   0  0  0  0  0  0  0  0  0  0  0  0
   -2.0890   14.4020    1.7040 N   0  0  0  0  0  0  0  0  0  0  0  0
   -3.6540   25.2620  -12.4190 C   0  0  0  0  0  0  0  0  0  0  0  0
   -4.9620   25.1250  -13.1690 C   0  0  0  0  0  0  0  0  0  0  0  0
   -2.5520   25.9040  -12.9670 C   0  0  0  0  0  0  0  0  0  0  0  0
   -5.0240   25.6700  -14.4400 C   0  0  0  0  0  0  0  0  0  0  0  0
   -2.7420   26.4160  -14.2760 C   0  0  0  0  0  0  0  0  0  0  0  0
   -3.9160   26.2960  -14.9540 N   0  0  0  0  0  0  0  0  0  0  0  0
  1  2  1  0
  2  3  1  0
  1  4  1  0
  1  5  1  0
  1  6  1  0
  6  7  1  0
  7  8  1  0
  7  9  1  0
  7 10  1  0
 11  3  1  6
 10 12  1  0
 11 13  1  0
 11 14  1  0
 14 15  1  1
 14 16  1  0
 13 17  1  0
 16 17  1  0
 18 12  1  6
 16 19  1  6
 18 20  1  0
 18 21  1  0
 17 22  1  6
 20 23  1  6
 21 24  1  0
 20 25  1  0
 24 25  1  0
 22 26  1  0
 22 27  1  0
 25 28  1  6
 23 29  1  0
 26 30  1  0
 26 31  1  1
 27 32  1  0
 30 32  1  6
 29 33  1  0
 30 34  1  0
 31 35  1  0
 34 36  1  1
 33 37  1  0
 34 38  1  0
 35 38  1  0
 37 39  1  0
 39 40  2  0
 39 41  1  0
 40 42  1  0
 41 43  2  0
 42 44  2  0
 43 44  1  0
M  CHG  2   4  -1   8  -1
M  END
>  <%Rank>  (52) 
50.49505

>  <N_hits>  (52) 
2

>  <submitter_name>  (52) 
nan

>  <original SMILES>  (52) 
nan

>  <∆G_unbound>  (52) 
4.455245

>  <∆G_bound>  (52) 
-12.723805

>  <regarded>  (52) 
mArh-2fav_B_0_B,mArh-x0918_0_B

>  <ref_pdb>  (52) 
nan

>  <smiles>  (52) 
NC1NCNC2C1NCN2C1OC(CO[PH]([O-])(O)O[PH]([O-])(O)OCC2OCC(O)C2OCCNc2ccncc2)C(O)C1O

>  <submitter_email>  (52) 
nan

>  <disregarded>  (52) 


>  <LE>  (52) 
-0.390433

>  <submitter_institution>  (52) 
nan

>  <ref_mols>  (52) 
mArh-2fav_B_0_B,mArh-x0918_0_B

>  <N_constrained_atoms>  (52) 
42.0

>  <ref_url>  (52) 
nan

>  <method>  (52) 
nan

>  <comRMSD>  (52) 
0.903353

>  <N_unconstrained_atoms>  (52) 
2.0

>  <∆∆G>  (52) 
-17.17905

>  <runtime>  (52) 
31.786834

>  <generation_date>  (52) 
nan

$$$$
mArh-x0631_0_A-mArh-5cms_J_9_J
     RDKit          3D

 55 60  0  0  0  0  0  0  0  0999 V2000
   -2.7310    8.2300   -7.9630 C   0  0  0  0  0  0  0  0  0  0  0  0
   -1.4360    7.9850   -7.1900 C   0  0  0  0  0  0  0  0  0  0  0  0
   -0.9530    9.3130   -6.6450 C   0  0  1  0  0  0  0  0  0  0  0  0
   -0.5600    9.2310   -5.1530 C   0  0  0  0  0  0  0  0  0  0  0  0
   -0.0790    9.9360   -7.6380 N   0  0  0  0  0  0  0  0  0  0  0  0
   -0.4070   10.5420   -4.3400 C   0  0  0  0  0  0  0  0  0  0  0  0
    0.5240   11.0930   -7.4010 N   0  0  0  0  0  0  0  0  0  0  0  0
    0.1450    9.3990   -8.8720 N   0  0  0  0  0  0  0  0  0  0  0  0
    0.1100   11.5950   -5.3500 C   0  0  0  0  0  0  0  0  0  0  0  0
    1.1500   11.3580   -8.5120 N   0  0  0  0  0  0  0  0  0  0  0  0
    0.9200   10.3530   -9.3980 C   0  0  0  0  0  0  0  0  0  0  0  0
    1.4830   10.4920  -10.6410 N   0  0  0  0  0  0  0  0  0  0  0  0
    0.6480   12.7630   -4.6920 O   0  0  0  0  0  0  0  0  0  0  0  0
    2.3220    9.7300  -11.4120 C   0  0  0  0  0  0  0  0  0  0  0  0
   -0.0670   13.9760   -5.0240 C   0  0  2  0  0  0  0  0  0  0  0  0
    2.5790    8.5850  -11.0210 O   0  0  0  0  0  0  0  0  0  0  0  0
    2.9060   10.2910  -12.6270 C   0  0  0  0  0  0  0  0  0  0  0  0
    0.5610   15.1070   -4.4290 C   0  0  1  0  0  0  0  0  0  0  0  0
   -1.4590   13.8650   -4.4000 C   0  0  1  0  0  0  0  0  0  0  0  0
    0.4380   16.4440   -5.2380 C   0  0  0  0  0  0  0  0  0  0  0  0
   -1.6290   12.5920   -3.7600 O   0  0  0  0  0  0  0  0  0  0  0  0
    3.8920    9.5740  -13.2640 O   0  0  0  0  0  0  0  0  0  0  0  0
    2.6910   11.4690  -13.3330 C   0  0  0  0  0  0  0  0  0  0  0  0
   -0.0540   15.2940   -3.1520 O   0  0  0  0  0  0  0  0  0  0  0  0
   -1.4090   14.9890   -3.3930 C   0  0  2  0  0  0  0  0  0  0  0  0
   -0.6310   17.3180   -4.8180 O   0  0  0  0  0  0  0  0  0  0  0  0
    3.5820   11.4660  -14.4380 C   0  0  0  0  0  0  0  0  0  0  0  0
    4.2880   10.2910  -14.3480 C   0  0  0  0  0  0  0  0  0  0  0  0
   -2.1910   14.9850   -2.1660 N   0  0  0  0  0  0  0  0  0  0  0  0
   -1.5320   18.1970   -5.8540 P   0  0  1  0  0  0  0  0  0  0  0  0
   -1.7850   14.8560   -0.8580 C   0  0  0  0  0  0  0  0  0  0  0  0
   -3.5490   15.1680   -2.1640 C   0  0  0  0  0  0  0  0  0  0  0  0
   -2.3710   17.4230   -6.8110 O   0  0  0  0  0  0  0  0  0  0  0  0
   -2.4470   19.0150   -4.8630 O   0  0  0  0  0  0  0  0  0  0  0  0
   -0.8260   19.5260   -6.3580 O   0  0  0  0  0  0  0  0  0  0  0  0
   -2.9570   15.0130   -0.1310 C   0  0  0  0  0  0  0  0  0  0  0  0
   -0.5530   14.6540   -0.3500 N   0  0  0  0  0  0  0  0  0  0  0  0
   -4.0460   15.1890   -0.9570 N   0  0  0  0  0  0  0  0  0  0  0  0
   -0.0730   19.5440   -7.7130 P   0  0  1  0  0  0  0  0  0  0  0  0
   -2.8550   14.9850    1.2590 C   0  0  0  0  0  0  0  0  0  0  0  0
   -0.5790   14.6240    1.0010 C   0  0  0  0  0  0  0  0  0  0  0  0
    0.9790   18.5460   -7.7310 O   0  0  0  0  0  0  0  0  0  0  0  0
   -1.1920   19.2900   -8.7710 O   0  0  0  0  0  0  0  0  0  0  0  0
    0.3650   21.0190   -8.1870 O   0  0  0  0  0  0  0  0  0  0  0  0
   -3.9670   15.1870    2.0570 N   0  0  0  0  0  0  0  0  0  0  0  0
   -1.6390   14.7760    1.8240 N   0  0  0  0  0  0  0  0  0  0  0  0
   -0.3440   22.1900   -7.8390 C   0  0  0  0  0  0  0  0  0  0  0  0
   -1.7780   22.1940   -8.3480 C   0  0  1  0  0  0  0  0  0  0  0  0
   -2.4170   23.5740   -8.4000 C   0  0  1  0  0  0  0  0  0  0  0  0
   -2.0400   21.6090   -9.6130 O   0  0  0  0  0  0  0  0  0  0  0  0
   -1.5360   24.5330   -8.8910 O   0  0  0  0  0  0  0  0  0  0  0  0
   -3.3980   21.9850   -9.8280 C   0  0  2  0  0  0  0  0  0  0  0  0
   -3.6380   23.3610   -9.2920 C   0  0  2  0  0  0  0  0  0  0  0  0
   -4.1940   21.2210   -8.9820 O   0  0  0  0  0  0  0  0  0  0  0  0
   -3.9100   24.3300  -10.2930 O   0  0  0  0  0  0  0  0  0  0  0  0
  1  2  1  0
  3  2  1  6
  3  4  1  0
  3  5  1  0
  4  6  1  0
  5  7  1  0
  5  8  1  0
  6  9  1  0
  7 10  2  0
  8 11  2  0
 10 11  1  0
 11 12  1  0
  9 13  1  0
 12 14  1  0
 15 13  1  1
 14 16  2  0
 14 17  1  0
 15 18  1  0
 15 19  1  0
 18 20  1  6
 19 21  1  1
 17 22  1  0
 17 23  2  0
 18 24  1  0
 19 25  1  0
 24 25  1  0
 20 26  1  0
 23 27  1  0
 22 28  1  0
 27 28  2  0
 25 29  1  1
 26 30  1  0
 29 31  1  0
 29 32  1  0
 30 33  2  0
 30 34  1  1
 30 35  1  0
 31 36  2  0
 31 37  1  0
 32 38  2  0
 36 38  1  0
 35 39  1  0
 36 40  1  0
 37 41  2  0
 39 42  2  0
 39 43  1  6
 39 44  1  0
 40 45  1  0
 40 46  2  0
 41 46  1  0
 44 47  1  0
 48 47  1  6
 48 49  1  0
 48 50  1  0
 49 51  1  6
 50 52  1  0
 49 53  1  0
 52 53  1  0
 52 54  1  1
 53 55  1  6
M  END
>  <%Rank>  (53) 
51.485149

>  <N_hits>  (53) 
2

>  <submitter_name>  (53) 
nan

>  <original SMILES>  (53) 
nan

>  <∆G_unbound>  (53) 
2.969106

>  <∆G_bound>  (53) 
-10.517729

>  <regarded>  (53) 
mArh-x0631_0_A,mArh-5cms_J_9_J

>  <ref_pdb>  (53) 
nan

>  <smiles>  (53) 
CCC(CCCOC1C(CO[P@@](=O)(O)O[P@@](=O)(O)OCC2OC(O)C(O)C2O)OC(n2cnc3c(N)ncnc32)C1O)n1nnc(NC(=O)c2ccco2)n1

>  <submitter_email>  (53) 
nan

>  <disregarded>  (53) 


>  <LE>  (53) 
-0.245215

>  <submitter_institution>  (53) 
nan

>  <ref_mols>  (53) 
mArh-x0631_0_A,mArh-5cms_J_9_J

>  <N_constrained_atoms>  (53) 
52.0

>  <ref_url>  (53) 
nan

>  <method>  (53) 
nan

>  <comRMSD>  (53) 
0.898617

>  <N_unconstrained_atoms>  (53) 
3.0

>  <∆∆G>  (53) 
-13.486835

>  <runtime>  (53) 
68.947557

>  <generation_date>  (53) 
nan

$$$$
mArh-x0685_0_A-mArh-5cb5_M_1_M
     RDKit          3D

 50 54  0  0  0  0  0  0  0  0999 V2000
   -7.0320   14.8990    2.3670 N   0  0  0  0  0  0  0  0  0  0  0  0
   -8.3100   14.2370    2.4270 C   0  0  0  0  0  0  0  0  0  0  0  0
   -8.1520   13.0130    3.3080 C   0  0  0  0  0  0  0  0  0  0  0  0
   -6.3570   14.7990    1.1320 C   0  0  0  0  0  0  0  0  0  0  0  0
   -5.0470   14.9490    1.3380 C   0  0  0  0  0  0  0  0  0  0  0  0
   -6.8850   14.5870   -0.1390 N   0  0  0  0  0  0  0  0  0  0  0  0
   -4.2500   14.8820    0.2890 C   0  0  0  0  0  0  0  0  0  0  0  0
   -6.0130   14.5230   -1.2420 C   0  0  0  0  0  0  0  0  0  0  0  0
   -4.6710   14.6680   -1.0060 C   0  0  0  0  0  0  0  0  0  0  0  0
   -3.3640   14.7140   -1.4510 C   0  0  0  0  0  0  0  0  0  0  0  0
   -3.1530   14.7590   -0.2450 N   0  0  0  0  0  0  0  0  0  0  0  0
   -2.1540   14.7440   -2.1880 N   0  0  0  0  0  0  0  0  0  0  0  0
   -1.7170   14.7120   -3.5740 C   0  0  1  0  0  0  0  0  0  0  0  0
   -1.9690   14.8350   -0.0150 C   0  0  0  0  0  0  0  0  0  0  0  0
   -1.2320   14.8550   -1.1310 C   0  0  0  0  0  0  0  0  0  0  0  0
   -0.9770   15.9230   -3.7520 O   0  0  0  0  0  0  0  0  0  0  0  0
   -0.5840   13.6860   -3.9600 C   0  0  1  0  0  0  0  0  0  0  0  0
   -1.5360   14.8930    1.2060 C   0  0  0  0  0  0  0  0  0  0  0  0
    0.0740   14.9660   -1.0920 N   0  0  0  0  0  0  0  0  0  0  0  0
   -2.9460   14.7800   -4.5350 C   0  0  0  0  0  0  0  0  0  0  0  0
   -1.0010   12.4100   -4.4650 O   0  0  0  0  0  0  0  0  0  0  0  0
   -2.5240   14.8220    2.1790 N   0  0  0  0  0  0  0  0  0  0  0  0
   -0.4450   15.7790   -5.0380 C   0  0  2  0  0  0  0  0  0  0  0  0
    0.1010   14.3520   -5.1490 C   0  0  1  0  0  0  0  0  0  0  0  0
   -0.2440   15.0100    1.3570 N   0  0  0  0  0  0  0  0  0  0  0  0
    0.4580   15.0550    0.1950 C   0  0  0  0  0  0  0  0  0  0  0  0
   -4.2460   14.6070   -3.8990 N   0  0  0  0  0  0  0  0  0  0  0  0
    0.4140   16.9520   -5.3870 C   0  0  0  0  0  0  0  0  0  0  0  0
    1.5050   14.1920   -5.0180 O   0  0  0  0  0  0  0  0  0  0  0  0
   -0.2790   17.5910   -6.4270 O   0  0  0  0  0  0  0  0  0  0  0  0
   -1.5450   18.5150   -6.1360 P   0  0  1  0  0  0  0  0  0  0  0  0
   -2.7340   18.0910   -6.8900 O   0  0  0  0  0  0  0  0  0  0  0  0
   -1.7070   18.6280   -4.5640 O   0  0  0  0  0  0  0  0  0  0  0  0
   -0.9090   19.8760   -6.5180 O   0  0  0  0  0  0  0  0  0  0  0  0
   -0.3030   19.9270   -7.9530 P   0  0  2  0  0  0  0  0  0  0  0  0
   -1.5550   20.3520   -8.7870 O   0  0  0  0  0  0  0  0  0  0  0  0
    0.2150   18.6600   -8.5380 O   0  0  0  0  0  0  0  0  0  0  0  0
    0.7190   21.1460   -7.9300 O   0  0  0  0  0  0  0  0  0  0  0  0
   -2.0840   21.6380   -8.7940 C   0  0  0  0  0  0  0  0  0  0  0  0
   -3.1270   21.9650   -7.8120 C   0  0  2  0  0  0  0  0  0  0  0  0
   -4.2370   21.0530   -7.8650 O   0  0  0  0  0  0  0  0  0  0  0  0
   -3.7530   23.3140   -8.0960 C   0  0  1  0  0  0  0  0  0  0  0  0
   -4.2240   23.5280   -9.4350 O   0  0  0  0  0  0  0  0  0  0  0  0
   -4.8600   23.2300   -7.0910 C   0  0  2  0  0  0  0  0  0  0  0  0
   -5.3040   21.7550   -7.2190 C   0  0  2  0  0  0  0  0  0  0  0  0
   -5.8480   24.2010   -7.3940 O   0  0  0  0  0  0  0  0  0  0  0  0
   -5.4660   21.2230   -5.9150 O   0  0  0  0  0  0  0  0  0  0  0  0
   -6.6260   23.8120   -8.4500 C   0  0  0  0  0  0  0  0  0  0  0  0
   -7.0740   24.9180   -9.3560 C   0  0  0  0  0  0  0  0  0  0  0  0
   -6.9400   22.6620   -8.6510 O   0  0  0  0  0  0  0  0  0  0  0  0
  1  2  1  0
  2  3  1  0
  1  4  1  0
  4  5  2  0
  4  6  1  0
  5  7  1  0
  6  8  2  0
  7  9  2  0
  8  9  1  0
  9 10  1  0
 10 11  2  0
 10 12  1  0
 12 13  1  0
 11 14  1  0
 12 15  1  0
 14 15  2  0
 13 16  1  0
 13 17  1  0
 14 18  1  0
 15 19  1  0
 13 20  1  6
 17 21  1  6
 18 22  1  0
 16 23  1  0
 17 24  1  0
 23 24  1  0
 18 25  2  0
 19 26  2  0
 25 26  1  0
 20 27  1  0
 23 28  1  1
 24 29  1  1
 28 30  1  0
 30 31  1  0
 31 32  2  0
 31 33  1  1
 31 34  1  0
 34 35  1  0
 35 36  1  0
 35 37  2  0
 35 38  1  1
 36 39  1  0
 40 39  1  6
 40 41  1  0
 40 42  1  0
 42 43  1  6
 42 44  1  0
 41 45  1  0
 44 45  1  0
 44 46  1  6
 45 47  1  1
 46 48  1  0
 48 49  1  0
 48 50  2  0
M  END
>  <%Rank>  (54) 
52.475248

>  <N_hits>  (54) 
2

>  <submitter_name>  (54) 
nan

>  <original SMILES>  (54) 
nan

>  <∆G_unbound>  (54) 
5.47577

>  <∆G_bound>  (54) 
-9.165744

>  <regarded>  (54) 
mArh-x0685_0_A,mArh-5cb5_M_1_M

>  <ref_pdb>  (54) 
nan

>  <smiles>  (54) 
CCNc1ccc(-c2nc3c(N)ncnc3n2C2(CN)OC(CO[P@@](=O)(O)O[P@](=O)(O)OCC3OC(O)C(OC(C)=O)C3O)C(O)C2O)cn1

>  <submitter_email>  (54) 
nan

>  <disregarded>  (54) 


>  <LE>  (54) 
-0.29283

>  <submitter_institution>  (54) 
nan

>  <ref_mols>  (54) 
mArh-x0685_0_A,mArh-5cb5_M_1_M

>  <N_constrained_atoms>  (54) 
49.0

>  <ref_url>  (54) 
nan

>  <method>  (54) 
nan

>  <comRMSD>  (54) 
0.947852

>  <N_unconstrained_atoms>  (54) 
1.0

>  <∆∆G>  (54) 
-14.641513

>  <runtime>  (54) 
79.843169

>  <generation_date>  (54) 
nan

$$$$
mArh-2fav_B_0_B-mArh-5cms_O_14_O
     RDKit          3D

 45 49  0  0  0  0  0  0  0  0999 V2000
   -1.2520   17.9480   -5.4910 P   0  0  0  0  0  0  0  0  0  0  0  0
   -0.2640   16.6010   -5.3470 O   0  0  0  0  0  0  0  0  0  0  0  0
    0.9500   16.8690   -4.8170 C   0  0  0  0  0  0  0  0  0  0  0  0
   -1.4820   18.9760   -4.2790 O   0  0  0  0  0  0  0  0  0  0  0  0
   -2.2370   17.9620   -6.7460 N   0  0  0  0  0  0  0  0  0  0  0  0
   -0.1330   18.8280   -6.0930 O   0  0  0  0  0  0  0  0  0  0  0  0
   -0.3400   19.5780   -7.6500 P   0  0  0  0  0  0  0  0  0  0  0  0
   -2.8920   17.1600   -7.1560 O   0  0  0  0  0  0  0  0  0  0  0  0
    1.0440   20.1820   -7.3650 O   0  0  0  0  0  0  0  0  0  0  0  0
    0.2540   18.6570   -8.8490 O   0  0  0  0  0  0  0  0  0  0  0  0
   -1.1660   20.9500   -7.8000 N   0  0  0  0  0  0  0  0  0  0  0  0
    1.3720   15.6150   -4.0490 C   0  0  1  0  0  0  0  0  0  0  0  0
   -1.8870   21.5950   -8.8260 C   0  0  1  0  0  0  0  0  0  0  0  0
   -2.3150   20.7190   -6.3470 P   0  0  0  0  0  0  0  0  0  0  0  0
    0.6010   15.3710   -2.9360 O   0  0  0  0  0  0  0  0  0  0  0  0
    1.1610   14.4400   -4.9480 C   0  0  1  0  0  0  0  0  0  0  0  0
    2.1080   13.4340   -4.7710 O   0  0  0  0  0  0  0  0  0  0  0  0
   -0.2370   13.9790   -4.6330 C   0  0  2  0  0  0  0  0  0  0  0  0
   -0.5910   14.7970   -3.4250 C   0  0  1  0  0  0  0  0  0  0  0  0
   -3.3470   22.0110   -8.5450 C   0  0  2  0  0  0  0  0  0  0  0  0
   -1.1280   22.3990   -9.8950 C   0  0  2  0  0  0  0  0  0  0  0  0
   -0.1970   12.6040   -4.3900 O   0  0  0  0  0  0  0  0  0  0  0  0
   -3.5850   23.4660   -8.0510 C   0  0  1  0  0  0  0  0  0  0  0  0
   -3.9110   21.2190   -7.5650 O   0  0  0  0  0  0  0  0  0  0  0  0
   -1.3710   14.2430   -2.4210 N   0  0  0  0  0  0  0  0  0  0  0  0
   -1.2880   23.8730  -10.0220 C   0  0  1  0  0  0  0  0  0  0  0  0
   -1.5450   22.0070  -11.1740 O   0  0  0  0  0  0  0  0  0  0  0  0
   -4.5420   24.0580   -8.8490 O   0  0  0  0  0  0  0  0  0  0  0  0
   -0.3180   24.4740  -10.8610 O   0  0  0  0  0  0  0  0  0  0  0  0
   -4.8560   21.8990   -6.8790 C   0  0  0  0  0  0  0  0  0  0  0  0
   -4.2400   23.2360   -6.6470 C   0  0  2  0  0  0  0  0  0  0  0  0
   -1.2600   14.7010   -1.0880 C   0  0  1  0  0  0  0  0  0  0  0  0
   -2.7500   14.1160   -2.6890 C   0  0  0  0  0  0  0  0  0  0  0  0
   -2.8250   22.5870  -11.2870 C   0  0  2  0  0  0  0  0  0  0  0  0
   -2.6250   23.9580  -10.7870 C   0  0  2  0  0  0  0  0  0  0  0  0
   -5.2430   24.1760   -6.5020 O   0  0  0  0  0  0  0  0  0  0  0  0
   -3.6840   21.8930  -10.5100 O   0  0  0  0  0  0  0  0  0  0  0  0
   -2.5190   24.9130  -11.7950 O   0  0  0  0  0  0  0  0  0  0  0  0
   -2.7050   14.9730   -0.6590 C   0  0  1  0  0  0  0  0  0  0  0  0
   -0.7320   13.6880   -0.2200 N   0  0  0  0  0  0  0  0  0  0  0  0
   -3.4050   13.9450   -1.3950 N   0  0  0  0  0  0  0  0  0  0  0  0
   -2.9700   15.0550    0.8020 C   0  0  1  0  0  0  0  0  0  0  0  0
   -0.8300   14.1060    1.1340 C   0  0  0  0  0  0  0  0  0  0  0  0
   -4.4000   14.9530    1.0980 N   0  0  0  0  0  0  0  0  0  0  0  0
   -2.1880   14.1620    1.5930 N   0  0  0  0  0  0  0  0  0  0  0  0
  1  2  1  0
  2  3  1  0
  1  4  1  0
  1  5  1  0
  1  6  1  0
  6  7  1  0
  5  8  2  0
  7  9  1  0
  7 10  1  0
  7 11  1  0
 12  3  1  6
 13 11  1  1
 11 14  1  0
 12 15  1  0
 12 16  1  0
 16 17  1  1
 16 18  1  0
 15 19  1  0
 18 19  1  0
 13 20  1  0
 13 21  1  0
 18 22  1  1
 20 23  1  0
 20 24  1  1
 19 25  1  1
 21 26  1  0
 21 27  1  6
 23 28  1  6
 26 29  1  6
 24 30  1  0
 23 31  1  0
 30 31  1  0
 25 32  1  0
 25 33  1  0
 27 34  1  0
 26 35  1  0
 34 35  1  0
 31 36  1  6
 34 37  1  1
 35 38  1  6
 32 39  1  0
 32 40  1  1
 33 41  1  0
 39 41  1  1
 39 42  1  0
 40 43  1  0
 42 44  1  6
 42 45  1  0
 43 45  1  0
M  CHG  2   4  -1   9  -1
M  END
>  <%Rank>  (55) 
53.465347

>  <N_hits>  (55) 
2

>  <submitter_name>  (55) 
nan

>  <original SMILES>  (55) 
nan

>  <∆G_unbound>  (55) 
7.012011

>  <∆G_bound>  (55) 
1.196662

>  <regarded>  (55) 
mArh-2fav_B_0_B,mArh-5cms_O_14_O

>  <ref_pdb>  (55) 
nan

>  <smiles>  (55) 
NC1NCNC2C1NCN2C1OC(CO[PH]([O-])(N=O)O[PH]([O-])(O)N([P@@H2])C(C2OCC(O)C2O)C2OC(O)C(O)C2O)C(O)C1O

>  <submitter_email>  (55) 
nan

>  <disregarded>  (55) 


>  <LE>  (55) 
-0.12923

>  <submitter_institution>  (55) 
nan

>  <ref_mols>  (55) 
mArh-2fav_B_0_B,mArh-5cms_O_14_O

>  <N_constrained_atoms>  (55) 
45.0

>  <ref_url>  (55) 
nan

>  <method>  (55) 
nan

>  <comRMSD>  (55) 
0.865973

>  <N_unconstrained_atoms>  (55) 
0.0

>  <∆∆G>  (55) 
-5.815349

>  <runtime>  (55) 
49.437186

>  <generation_date>  (55) 
nan

$$$$
mArh-5cms_I_8_I-mArh-5cms_L_11_L
     RDKit          3D

 37 40  0  0  0  0  0  0  0  0999 V2000
   -1.7980   17.9980   -6.1280 P   0  0  1  0  0  0  0  0  0  0  0  0
   -0.4580   17.1430   -5.9680 O   0  0  0  0  0  0  0  0  0  0  0  0
   -0.2660   16.6670   -4.6420 C   0  0  0  0  0  0  0  0  0  0  0  0
   -2.9030   17.2480   -6.7620 O   0  0  0  0  0  0  0  0  0  0  0  0
   -1.9820   18.5050   -4.6450 O   0  0  0  0  0  0  0  0  0  0  0  0
   -1.4530   19.3210   -6.8810 O   0  0  0  0  0  0  0  0  0  0  0  0
   -0.1290   19.5190   -7.6980 P   0  0  1  0  0  0  0  0  0  0  0  0
    1.1270   19.4770   -6.9130 O   0  0  0  0  0  0  0  0  0  0  0  0
   -0.1580   18.3880   -8.8060 O   0  0  0  0  0  0  0  0  0  0  0  0
   -0.4170   20.8530   -8.5020 O   0  0  0  0  0  0  0  0  0  0  0  0
    0.5380   15.3540   -4.5590 C   0  0  1  0  0  0  0  0  0  0  0  0
   -1.5150   21.6520   -8.0500 C   0  0  0  0  0  0  0  0  0  0  0  0
    0.5830   14.8470   -3.1560 N   0  0  0  0  0  0  0  0  0  0  0  0
   -0.0400   14.1660   -5.3380 C   0  0  1  0  0  0  0  0  0  0  0  0
    0.9600   13.2810   -5.8620 O   0  0  0  0  0  0  0  0  0  0  0  0
    1.5900   13.7890   -3.3350 O   0  0  0  0  0  0  0  0  0  0  0  0
   -0.9030   13.3850   -4.3570 C   0  0  1  0  0  0  0  0  0  0  0  0
   -0.5750   13.9120   -2.9620 C   0  0  2  0  0  0  0  0  0  0  0  0
   -2.5550   21.9270   -9.1300 C   0  0  2  0  0  0  0  0  0  0  0  0
   -2.2720   13.3690   -4.7210 O   0  0  0  0  0  0  0  0  0  0  0  0
   -2.8100   23.3810   -9.3020 C   0  0  1  0  0  0  0  0  0  0  0  0
   -3.9320   21.5580   -8.8250 O   0  0  0  0  0  0  0  0  0  0  0  0
   -1.6300   14.3780   -2.0560 N   0  0  0  0  0  0  0  0  0  0  0  0
   -1.6570   24.1470   -9.4520 O   0  0  0  0  0  0  0  0  0  0  0  0
   -4.7820   22.5230   -9.5270 C   0  0  2  0  0  0  0  0  0  0  0  0
   -3.8480   23.2960  -10.4200 C   0  0  2  0  0  0  0  0  0  0  0  0
   -1.4460   14.5420   -0.7060 C   0  0  0  0  0  0  0  0  0  0  0  0
   -2.9450   14.7080   -2.3120 C   0  0  0  0  0  0  0  0  0  0  0  0
   -5.3270   23.4460   -8.6090 O   0  0  0  0  0  0  0  0  0  0  0  0
   -3.6290   22.4480  -11.5480 O   0  0  0  0  0  0  0  0  0  0  0  0
   -2.6780   14.9500   -0.2050 C   0  0  0  0  0  0  0  0  0  0  0  0
   -0.3080   14.3390   -0.0260 N   0  0  0  0  0  0  0  0  0  0  0  0
   -3.6030   15.0560   -1.2190 N   0  0  0  0  0  0  0  0  0  0  0  0
   -2.7540   15.1680    1.1760 C   0  0  0  0  0  0  0  0  0  0  0  0
   -0.5030   14.5800    1.2800 C   0  0  0  0  0  0  0  0  0  0  0  0
   -3.9150   15.5710    1.8300 N   0  0  0  0  0  0  0  0  0  0  0  0
   -1.6340   14.9690    1.8990 N   0  0  0  0  0  0  0  0  0  0  0  0
  1  2  1  0
  2  3  1  0
  1  4  2  0
  1  5  1  1
  1  6  1  0
  6  7  1  0
  7  8  2  0
  7  9  1  6
  7 10  1  0
 11  3  1  1
 10 12  1  0
 11 13  1  0
 11 14  1  0
 14 15  1  1
 13 16  1  0
 14 17  1  0
 13 18  1  0
 17 18  1  0
 19 12  1  1
 17 20  1  6
 19 21  1  0
 19 22  1  0
 18 23  1  6
 21 24  1  6
 22 25  1  0
 21 26  1  0
 25 26  1  0
 23 27  1  0
 23 28  1  0
 25 29  1  1
 26 30  1  6
 27 31  2  0
 27 32  1  0
 28 33  2  0
 31 33  1  0
 31 34  1  0
 32 35  2  0
 34 36  1  0
 34 37  2  0
 35 37  1  0
M  END
>  <%Rank>  (56) 
54.455446

>  <N_hits>  (56) 
2

>  <submitter_name>  (56) 
nan

>  <original SMILES>  (56) 
nan

>  <∆G_unbound>  (56) 
5.712233

>  <∆G_bound>  (56) 
-11.470597

>  <regarded>  (56) 
mArh-5cms_I_8_I,mArh-5cms_L_11_L

>  <ref_pdb>  (56) 
nan

>  <smiles>  (56) 
Nc1ncnc2c1ncn2C1C(O)C(O)C(CO[P@@](=O)(O)O[P@@](=O)(O)OCC2OC(O)C(O)C2O)N1O

>  <submitter_email>  (56) 
nan

>  <disregarded>  (56) 


>  <LE>  (56) 
-0.464401

>  <submitter_institution>  (56) 
nan

>  <ref_mols>  (56) 
mArh-5cms_I_8_I,mArh-5cms_L_11_L

>  <N_constrained_atoms>  (56) 
37.0

>  <ref_url>  (56) 
nan

>  <method>  (56) 
nan

>  <comRMSD>  (56) 
0.976113

>  <N_unconstrained_atoms>  (56) 
0.0

>  <∆∆G>  (56) 
-17.18283

>  <runtime>  (56) 
52.923093

>  <generation_date>  (56) 
nan

$$$$
mArh-5cms_K_10_K-mArh-5cms_B_1_B
     RDKit          3D

 36 39  0  0  0  0  0  0  0  0999 V2000
   -1.4480   18.1180   -6.2020 P   0  0  1  0  0  0  0  0  0  0  0  0
    0.0160   17.4540   -6.3330 O   0  0  0  0  0  0  0  0  0  0  0  0
    0.7100   16.7010   -5.3380 C   0  0  0  0  0  0  0  0  0  0  0  0
   -2.5690   17.3690   -6.8230 O   0  0  0  0  0  0  0  0  0  0  0  0
   -1.6840   18.4410   -4.6640 O   0  0  0  0  0  0  0  0  0  0  0  0
   -1.2610   19.5650   -6.7620 O   0  0  0  0  0  0  0  0  0  0  0  0
   -0.3220   19.8720   -7.9950 P   0  0  1  0  0  0  0  0  0  0  0  0
    0.8410   20.7570   -7.7360 O   0  0  0  0  0  0  0  0  0  0  0  0
    0.0320   18.4840   -8.7120 O   0  0  0  0  0  0  0  0  0  0  0  0
   -1.3780   20.4390   -9.0440 O   0  0  0  0  0  0  0  0  0  0  0  0
   -0.1310   15.5490   -4.8230 C   0  0  2  0  0  0  0  0  0  0  0  0
   -2.0310   21.6090   -8.6320 C   0  0  0  0  0  0  0  0  0  0  0  0
   -0.1610   15.5070   -3.4110 O   0  0  0  0  0  0  0  0  0  0  0  0
    0.0520   14.0590   -5.1860 C   0  0  1  0  0  0  0  0  0  0  0  0
    1.3340   13.5390   -4.8030 O   0  0  0  0  0  0  0  0  0  0  0  0
   -1.0210   13.4440   -4.2480 C   0  0  2  0  0  0  0  0  0  0  0  0
   -1.3190   14.7000   -3.4040 C   0  0  1  0  0  0  0  0  0  0  0  0
   -3.2780   21.9770   -9.4430 C   0  0  1  0  0  0  0  0  0  0  0  0
   -0.5540   12.3120   -3.5420 O   0  0  0  0  0  0  0  0  0  0  0  0
   -3.4830   23.4680   -9.3340 C   0  0  1  0  0  0  0  0  0  0  0  0
   -3.2760   21.7070  -10.8510 O   0  0  0  0  0  0  0  0  0  0  0  0
   -2.0910   14.8210   -2.1980 N   0  0  0  0  0  0  0  0  0  0  0  0
   -2.2690   24.1060   -9.0760 O   0  0  0  0  0  0  0  0  0  0  0  0
   -4.2060   22.6160  -11.4690 C   0  0  2  0  0  0  0  0  0  0  0  0
   -4.2330   23.8750  -10.6190 C   0  0  2  0  0  0  0  0  0  0  0  0
   -1.7720   14.7570   -0.8600 C   0  0  0  0  0  0  0  0  0  0  0  0
   -3.4300   15.0860   -2.2940 C   0  0  0  0  0  0  0  0  0  0  0  0
   -5.5210   22.1180  -11.5140 O   0  0  0  0  0  0  0  0  0  0  0  0
   -3.6190   24.9790  -11.3180 O   0  0  0  0  0  0  0  0  0  0  0  0
   -2.9880   15.0220   -0.2360 C   0  0  0  0  0  0  0  0  0  0  0  0
   -0.5960   14.5240   -0.2440 N   0  0  0  0  0  0  0  0  0  0  0  0
   -4.0050   15.2140   -1.1360 N   0  0  0  0  0  0  0  0  0  0  0  0
   -3.0010   15.0620    1.1480 C   0  0  0  0  0  0  0  0  0  0  0  0
   -0.7340   14.5720    1.0990 C   0  0  0  0  0  0  0  0  0  0  0  0
   -4.1690   15.3570    1.8300 N   0  0  0  0  0  0  0  0  0  0  0  0
   -1.8530   14.8190    1.8230 N   0  0  0  0  0  0  0  0  0  0  0  0
  1  2  1  0
  2  3  1  0
  1  4  2  0
  1  5  1  1
  1  6  1  0
  6  7  1  0
  7  8  2  0
  7  9  1  6
  7 10  1  0
 11  3  1  1
 10 12  1  0
 11 13  1  0
 11 14  1  0
 14 15  1  1
 14 16  1  0
 13 17  1  0
 16 17  1  0
 18 12  1  6
 16 19  1  1
 18 20  1  0
 18 21  1  0
 17 22  1  1
 20 23  1  6
 21 24  1  0
 20 25  1  0
 24 25  1  0
 22 26  1  0
 22 27  1  0
 24 28  1  1
 25 29  1  6
 26 30  2  0
 26 31  1  0
 27 32  2  0
 30 32  1  0
 30 33  1  0
 31 34  2  0
 33 35  1  0
 33 36  2  0
 34 36  1  0
M  END
>  <%Rank>  (57) 
55.445545

>  <N_hits>  (57) 
2

>  <submitter_name>  (57) 
nan

>  <original SMILES>  (57) 
nan

>  <∆G_unbound>  (57) 
4.299768

>  <∆G_bound>  (57) 
-11.605619

>  <regarded>  (57) 
mArh-5cms_K_10_K,mArh-5cms_B_1_B

>  <ref_pdb>  (57) 
nan

>  <smiles>  (57) 
Nc1ncnc2c1ncn2C1OC(CO[P@@](=O)(O)O[P@@](=O)(O)OCC2OC(O)C(O)C2O)C(O)C1O

>  <submitter_email>  (57) 
nan

>  <disregarded>  (57) 


>  <LE>  (57) 
-0.441816

>  <submitter_institution>  (57) 
nan

>  <ref_mols>  (57) 
mArh-5cms_K_10_K,mArh-5cms_B_1_B

>  <N_constrained_atoms>  (57) 
36.0

>  <ref_url>  (57) 
nan

>  <method>  (57) 
nan

>  <comRMSD>  (57) 
0.969455

>  <N_unconstrained_atoms>  (57) 
0.0

>  <∆∆G>  (57) 
-15.905387

>  <runtime>  (57) 
56.137806

>  <generation_date>  (57) 
nan

$$$$
mArh-5cb5_R_0_R-mArh-3ew5_C_0_C
     RDKit          3D

 38 42  0  0  0  0  0  0  0  0999 V2000
   -1.4470   18.0580   -6.0640 P   0  0  1  0  0  0  0  0  0  0  0  0
   -0.4890   16.8060   -5.8290 O   0  0  0  0  0  0  0  0  0  0  0  0
    0.6620   16.8870   -5.0020 C   0  0  0  0  0  0  0  0  0  0  0  0
   -2.6180   17.7930   -6.9380 O   0  0  0  0  0  0  0  0  0  0  0  0
   -1.8970   18.4120   -4.5920 O   0  0  0  0  0  0  0  0  0  0  0  0
   -0.5560   19.2920   -6.4100 O   0  0  0  0  0  0  0  0  0  0  0  0
   -0.0390   19.8600   -7.7690 P   0  0  1  0  0  0  0  0  0  0  0  0
    1.1450   20.7630   -7.6550 O   0  0  0  0  0  0  0  0  0  0  0  0
    0.1560   18.6090   -8.7550 O   0  0  0  0  0  0  0  0  0  0  0  0
   -1.2850   20.6080   -8.3770 O   0  0  0  0  0  0  0  0  0  0  0  0
    0.9630   15.5530   -4.3020 C   0  0  1  0  0  0  0  0  0  0  0  0
   -1.9340   21.3920   -7.4150 C   0  0  1  0  0  0  0  0  0  0  0  0
    0.2900   15.5180   -3.0220 O   0  0  0  0  0  0  0  0  0  0  0  0
    0.4180   14.2850   -5.0170 C   0  0  1  0  0  0  0  0  0  0  0  0
    1.3100   13.1800   -4.8900 O   0  0  0  0  0  0  0  0  0  0  0  0
   -2.4930   22.5790   -8.0720 C   0  0  0  0  0  0  0  0  0  0  0  0
   -0.7880   14.0470   -4.3160 C   0  0  2  0  0  0  0  0  0  0  0  0
   -1.0180   15.0210   -3.3600 C   0  0  1  0  0  0  0  0  0  0  0  0
   -3.0620   20.6560   -6.7290 C   0  0  0  0  0  0  0  0  0  0  0  0
   -0.7010   12.7330   -3.7630 O   0  0  0  0  0  0  0  0  0  0  0  0
   -3.7670   22.1860   -8.7550 C   0  0  2  0  0  0  0  0  0  0  0  0
   -4.2870   21.3880   -6.5460 O   0  0  0  0  0  0  0  0  0  0  0  0
   -1.9200   14.9590   -2.2250 N   0  0  0  0  0  0  0  0  0  0  0  0
   -4.1420   23.2140   -9.8240 C   0  0  0  0  0  0  0  0  0  0  0  0
   -4.8020   22.0750   -7.6830 C   0  0  1  0  0  0  0  0  0  0  0  0
   -1.5700   14.8790   -0.8900 C   0  0  0  0  0  0  0  0  0  0  0  0
   -3.2860   15.0160   -2.2850 C   0  0  0  0  0  0  0  0  0  0  0  0
   -5.3300   23.9850   -9.7050 O   0  0  0  0  0  0  0  0  0  0  0  0
   -5.0650   23.5340   -7.4030 C   0  0  2  0  0  0  0  0  0  0  0  0
   -2.7900   14.9370   -0.2160 C   0  0  0  0  0  0  0  0  0  0  0  0
   -0.3460   14.7940   -0.3390 N   0  0  0  0  0  0  0  0  0  0  0  0
   -3.8400   15.0060   -1.0950 N   0  0  0  0  0  0  0  0  0  0  0  0
   -5.5870   23.8960   -6.1440 O   0  0  0  0  0  0  0  0  0  0  0  0
   -6.0230   23.8400   -8.5000 C   0  0  0  0  0  0  0  0  0  0  0  0
   -2.7460   14.9330    1.1770 C   0  0  0  0  0  0  0  0  0  0  0  0
   -0.4410   14.7740    1.0130 C   0  0  0  0  0  0  0  0  0  0  0  0
   -3.8990   15.0420    1.9300 N   0  0  0  0  0  0  0  0  0  0  0  0
   -1.5440   14.8350    1.7870 N   0  0  0  0  0  0  0  0  0  0  0  0
  1  2  1  0
  2  3  1  0
  1  4  2  0
  1  5  1  1
  1  6  1  0
  6  7  1  0
  7  8  2  0
  7  9  1  6
  7 10  1  0
 11  3  1  6
 12 10  1  6
 11 13  1  0
 11 14  1  0
 14 15  1  1
 12 16  1  0
 14 17  1  0
 13 18  1  0
 17 18  1  0
 12 19  1  0
 17 20  1  1
 21 16  1  1
 19 22  1  0
 18 23  1  1
 21 24  1  0
 21 25  1  0
 25 22  1  1
 23 26  1  0
 23 27  1  0
 24 28  1  0
 25 29  1  0
 26 30  2  0
 26 31  1  0
 27 32  2  0
 30 32  1  0
 29 33  1  1
 28 34  1  0
 29 34  1  0
 30 35  1  0
 31 36  2  0
 35 37  1  0
 35 38  2  0
 36 38  1  0
M  END
>  <%Rank>  (58) 
56.435644

>  <N_hits>  (58) 
2

>  <submitter_name>  (58) 
nan

>  <original SMILES>  (58) 
nan

>  <∆G_unbound>  (58) 
2.748215

>  <∆G_bound>  (58) 
-18.313757

>  <regarded>  (58) 
mArh-5cb5_R_0_R,mArh-3ew5_C_0_C

>  <ref_pdb>  (58) 
nan

>  <smiles>  (58) 
Nc1ncnc2c1ncn2C1OC(CO[P@@](=O)(O)O[P@@](=O)(O)OC2COC3C(O)COC[C@H]3C2)C(O)C1O

>  <submitter_email>  (58) 
nan

>  <disregarded>  (58) 


>  <LE>  (58) 
-0.554262

>  <submitter_institution>  (58) 
nan

>  <ref_mols>  (58) 
mArh-5cb5_R_0_R,mArh-3ew5_C_0_C

>  <N_constrained_atoms>  (58) 
38.0

>  <ref_url>  (58) 
nan

>  <method>  (58) 
nan

>  <comRMSD>  (58) 
1.046353

>  <N_unconstrained_atoms>  (58) 
0.0

>  <∆∆G>  (58) 
-21.061972

>  <runtime>  (58) 
50.709868

>  <generation_date>  (58) 
nan

$$$$
mArh-5cms_K_10_K-mArh-5cms_O_14_O
     RDKit          3D

 38 41  0  0  0  0  0  0  0  0999 V2000
   -1.4320   18.1000   -6.1710 P   0  0  1  0  0  0  0  0  0  0  0  0
    0.0330   17.4700   -6.2700 O   0  0  0  0  0  0  0  0  0  0  0  0
    0.7430   16.6490   -5.3630 C   0  0  0  0  0  0  0  0  0  0  0  0
   -2.5420   17.3290   -6.7890 O   0  0  0  0  0  0  0  0  0  0  0  0
   -1.7310   18.4200   -4.6400 O   0  0  0  0  0  0  0  0  0  0  0  0
   -1.2780   19.5140   -6.7750 O   0  0  0  0  0  0  0  0  0  0  0  0
   -0.2830   19.7890   -7.9630 P   0  0  1  0  0  0  0  0  0  0  0  0
    0.9550   20.5320   -7.6320 O   0  0  0  0  0  0  0  0  0  0  0  0
    0.0050   18.4250   -8.7540 O   0  0  0  0  0  0  0  0  0  0  0  0
   -1.2420   20.5510   -8.9490 O   0  0  0  0  0  0  0  0  0  0  0  0
   -0.0630   15.4830   -4.8360 C   0  0  2  0  0  0  0  0  0  0  0  0
   -1.6720   21.7260   -8.3300 C   0  0  1  0  0  0  0  0  0  0  0  0
   -0.3320   15.6060   -3.4650 O   0  0  0  0  0  0  0  0  0  0  0  0
    0.4090   14.0220   -4.9640 C   0  0  1  0  0  0  0  0  0  0  0  0
    1.7860   13.7490   -4.8210 O   0  0  0  0  0  0  0  0  0  0  0  0
   -0.4570   22.6230   -8.1720 C   0  0  0  0  0  0  0  0  0  0  0  0
   -0.4340   13.3400   -3.8600 C   0  0  1  0  0  0  0  0  0  0  0  0
   -1.2560   14.5470   -3.4060 C   0  0  1  0  0  0  0  0  0  0  0  0
   -2.9580   22.3220   -8.9130 C   0  0  1  0  0  0  0  0  0  0  0  0
   -1.1550   12.2710   -4.4610 O   0  0  0  0  0  0  0  0  0  0  0  0
   -2.9950   23.7710   -9.1980 C   0  0  1  0  0  0  0  0  0  0  0  0
   -3.6750   21.6830   -9.9910 N   0  0  0  0  0  0  0  0  0  0  0  0
   -2.0500   14.7170   -2.2190 N   0  0  0  0  0  0  0  0  0  0  0  0
   -1.7290   24.3470   -9.2790 O   0  0  0  0  0  0  0  0  0  0  0  0
   -4.8950   21.5420   -9.2450 O   0  0  0  0  0  0  0  0  0  0  0  0
   -4.1480   22.5980  -11.0220 C   0  0  2  0  0  0  0  0  0  0  0  0
   -3.9740   23.9820  -10.3940 C   0  0  2  0  0  0  0  0  0  0  0  0
   -1.7270   14.6990   -0.8840 C   0  0  0  0  0  0  0  0  0  0  0  0
   -3.3900   14.9700   -2.3170 C   0  0  0  0  0  0  0  0  0  0  0  0
   -5.5150   22.3830  -11.2780 O   0  0  0  0  0  0  0  0  0  0  0  0
   -3.5780   24.9930  -11.3500 O   0  0  0  0  0  0  0  0  0  0  0  0
   -2.9370   14.9660   -0.2510 C   0  0  0  0  0  0  0  0  0  0  0  0
   -0.5390   14.4910   -0.2950 N   0  0  0  0  0  0  0  0  0  0  0  0
   -3.9630   15.1270   -1.1560 N   0  0  0  0  0  0  0  0  0  0  0  0
   -2.9230   15.0330    1.1360 C   0  0  0  0  0  0  0  0  0  0  0  0
   -0.6540   14.5650    1.0500 C   0  0  0  0  0  0  0  0  0  0  0  0
   -4.0630   15.3210    1.8610 N   0  0  0  0  0  0  0  0  0  0  0  0
   -1.7570   14.8150    1.7880 N   0  0  0  0  0  0  0  0  0  0  0  0
  1  2  1  0
  2  3  1  0
  1  4  2  0
  1  5  1  1
  1  6  1  0
  6  7  1  0
  7  8  2  0
  7  9  1  6
  7 10  1  0
 11  3  1  1
 10 12  1  0
 11 13  1  0
 11 14  1  0
 14 15  1  1
 12 16  1  6
 14 17  1  0
 13 18  1  0
 17 18  1  0
 12 19  1  0
 17 20  1  6
 19 21  1  0
 19 22  1  6
 18 23  1  1
 21 24  1  6
 22 25  1  0
 22 26  1  0
 21 27  1  0
 26 27  1  0
 23 28  1  0
 23 29  1  0
 26 30  1  1
 27 31  1  6
 28 32  2  0
 28 33  1  0
 29 34  2  0
 32 34  1  0
 32 35  1  0
 33 36  2  0
 35 37  1  0
 35 38  2  0
 36 38  1  0
M  END
>  <%Rank>  (59) 
57.425743

>  <N_hits>  (59) 
2

>  <submitter_name>  (59) 
nan

>  <original SMILES>  (59) 
nan

>  <∆G_unbound>  (59) 
9.271423

>  <∆G_bound>  (59) 
-11.269983

>  <regarded>  (59) 
mArh-5cms_K_10_K,mArh-5cms_O_14_O

>  <ref_pdb>  (59) 
nan

>  <smiles>  (59) 
CC(O[P@](=O)(O)O[P@](=O)(O)OCC1OC(n2cnc3c(N)ncnc32)C(O)C1O)C1C(O)C(O)C(O)N1O

>  <submitter_email>  (59) 
nan

>  <disregarded>  (59) 


>  <LE>  (59) 
-0.540563

>  <submitter_institution>  (59) 
nan

>  <ref_mols>  (59) 
mArh-5cms_K_10_K,mArh-5cms_O_14_O

>  <N_constrained_atoms>  (59) 
38.0

>  <ref_url>  (59) 
nan

>  <method>  (59) 
nan

>  <comRMSD>  (59) 
1.046154

>  <N_unconstrained_atoms>  (59) 
0.0

>  <∆∆G>  (59) 
-20.541407

>  <runtime>  (59) 
49.562099

>  <generation_date>  (59) 
nan

$$$$
mArh-5cms_G_3_G-mArh-2bfq_0_A
     RDKit          3D

 37 40  0  0  0  0  0  0  0  0999 V2000
   -1.2100   18.3100   -5.9410 P   0  0  0  0  0  0  0  0  0  0  0  0
   -0.1830   17.7150   -4.8760 O   0  0  0  0  0  0  0  0  0  0  0  0
    0.6400   16.6010   -5.0920 C   0  0  0  0  0  0  0  0  0  0  0  0
   -2.3140   18.8180   -4.9680 O   0  0  0  0  0  0  0  0  0  0  0  0
   -2.4620   17.4440   -6.7070 O   0  0  0  0  0  0  0  0  0  0  0  0
   -0.9650   19.8140   -6.4230 O   0  0  0  0  0  0  0  0  0  0  0  0
   -0.3400   20.0360   -7.9330 P   0  0  0  0  0  0  0  0  0  0  0  0
   -1.7420   20.3290   -8.3420 O   0  0  0  0  0  0  0  0  0  0  0  0
   -0.0880   18.7330   -8.8270 O   0  0  0  0  0  0  0  0  0  0  0  0
    0.0620   21.5180   -8.3930 O   0  0  0  0  0  0  0  0  0  0  0  0
   -0.2800   15.4870   -4.6890 C   0  0  2  0  0  0  0  0  0  0  0  0
    1.5960   22.1300   -7.5980 P   0  0  0  0  0  0  0  0  0  0  0  0
   -2.2530   21.5990   -8.6220 C   0  0  0  0  0  0  0  0  0  0  0  0
   -0.4550   15.4110   -3.3490 O   0  0  0  0  0  0  0  0  0  0  0  0
    0.0390   14.0900   -5.1490 C   0  0  1  0  0  0  0  0  0  0  0  0
    1.3710   13.7990   -4.9800 O   0  0  0  0  0  0  0  0  0  0  0  0
   -1.3970   14.4470   -3.3280 C   0  0  1  0  0  0  0  0  0  0  0  0
   -0.8630   13.3180   -4.2110 C   0  0  1  0  0  0  0  0  0  0  0  0
   -3.1190   22.1560   -7.5290 C   0  0  1  0  0  0  0  0  0  0  0  0
   -1.8250   12.6710   -4.9320 O   0  0  0  0  0  0  0  0  0  0  0  0
   -2.0110   14.0730   -2.1220 N   0  0  0  0  0  0  0  0  0  0  0  0
   -4.1750   23.1140   -8.0290 C   0  0  2  0  0  0  0  0  0  0  0  0
   -3.9260   21.2570   -6.8850 O   0  0  0  0  0  0  0  0  0  0  0  0
   -3.8130   24.1740   -8.7830 O   0  0  0  0  0  0  0  0  0  0  0  0
   -1.6040   14.7560   -0.9350 C   0  0  1  0  0  0  0  0  0  0  0  0
   -3.3650   14.3530   -2.2040 C   0  0  0  0  0  0  0  0  0  0  0  0
   -5.0190   21.9790   -6.3870 C   0  0  1  0  0  0  0  0  0  0  0  0
   -4.6070   23.4080   -6.6430 C   0  0  2  0  0  0  0  0  0  0  0  0
   -6.0920   21.7520   -7.2410 O   0  0  0  0  0  0  0  0  0  0  0  0
   -5.6310   24.3400   -6.5350 O   0  0  0  0  0  0  0  0  0  0  0  0
   -2.8760   15.1270   -0.3660 C   0  0  1  0  0  0  0  0  0  0  0  0
   -0.6670   14.0570   -0.0740 N   0  0  0  0  0  0  0  0  0  0  0  0
   -3.7960   14.1850   -0.8320 N   0  0  0  0  0  0  0  0  0  0  0  0
   -2.8430   15.3770    1.0920 C   0  0  1  0  0  0  0  0  0  0  0  0
   -0.6380   14.5660    1.2400 C   0  0  0  0  0  0  0  0  0  0  0  0
   -4.1460   15.5290    1.7050 N   0  0  0  0  0  0  0  0  0  0  0  0
   -1.9270   14.5040    1.8280 N   0  0  0  0  0  0  0  0  0  0  0  0
  1  2  1  0
  2  3  1  0
  1  4  1  0
  1  5  1  0
  1  6  1  0
  6  7  1  0
  7  8  1  0
  7  9  1  0
  7 10  1  0
 11  3  1  1
 10 12  1  0
  8 13  1  0
 11 14  1  0
 11 15  1  0
 15 16  1  1
 14 17  1  0
 15 18  1  0
 17 18  1  0
 19 13  1  6
 18 20  1  6
 17 21  1  1
 19 22  1  0
 19 23  1  0
 22 24  1  1
 21 25  1  0
 21 26  1  0
 23 27  1  0
 22 28  1  0
 27 28  1  0
 27 29  1  6
 28 30  1  6
 25 31  1  0
 25 32  1  1
 26 33  1  0
 31 33  1  1
 31 34  1  0
 32 35  1  0
 34 36  1  1
 34 37  1  0
 35 37  1  0
M  CHG  2   4  -1   9  -1
M  END
>  <%Rank>  (60) 
58.415842

>  <N_hits>  (60) 
2

>  <submitter_name>  (60) 
nan

>  <original SMILES>  (60) 
nan

>  <∆G_unbound>  (60) 
5.326559

>  <∆G_bound>  (60) 
-8.981324

>  <regarded>  (60) 
mArh-5cms_G_3_G,mArh-2bfq_0_A

>  <ref_pdb>  (60) 
nan

>  <smiles>  (60) 
NC1NCNC2C1NCN2C1OC(CO[PH]([O-])(O)O[PH]([O-])(O[P@H2])OCC2OC(O)C(O)C2O)C(O)C1O

>  <submitter_email>  (60) 
nan

>  <disregarded>  (60) 


>  <LE>  (60) 
-0.3867

>  <submitter_institution>  (60) 
nan

>  <ref_mols>  (60) 
mArh-5cms_G_3_G,mArh-2bfq_0_A

>  <N_constrained_atoms>  (60) 
37.0

>  <ref_url>  (60) 
nan

>  <method>  (60) 
nan

>  <comRMSD>  (60) 
0.962588

>  <N_unconstrained_atoms>  (60) 
0.0

>  <∆∆G>  (60) 
-14.307883

>  <runtime>  (60) 
27.54305

>  <generation_date>  (60) 
nan

$$$$
mArh-x0895_1_A-mArh-5cb5_I_0_I
     RDKit          3D

 38 41  0  0  0  0  0  0  0  0999 V2000
   -2.0960   13.7790    1.7260 O   0  0  0  0  0  0  0  0  0  0  0  0
   -2.5000   14.2370    0.4340 C   0  0  1  0  0  0  0  0  0  0  0  0
   -3.8130   13.8690    0.1740 N   0  0  0  0  0  0  0  0  0  0  0  0
   -2.5480   15.7040    0.7080 C   0  0  1  0  0  0  0  0  0  0  0  0
   -1.5300   14.1140   -0.7990 C   0  0  1  0  0  0  0  0  0  0  0  0
   -3.5840   15.9980    1.7170 N   0  0  0  0  0  0  0  0  0  0  0  0
   -2.2040   14.7380   -2.1040 C   0  0  1  0  0  0  0  0  0  0  0  0
   -4.4160   14.6070   -0.7440 C   0  0  0  0  0  0  0  0  0  0  0  0
   -1.2500   16.0960    1.1440 N   0  0  0  0  0  0  0  0  0  0  0  0
   -0.2110   14.7190   -0.4740 N   0  0  0  0  0  0  0  0  0  0  0  0
   -5.6050   14.9070   -0.5840 O   0  0  0  0  0  0  0  0  0  0  0  0
   -3.6280   15.0150   -1.8460 N   0  0  0  0  0  0  0  0  0  0  0  0
   -1.4980   16.0020   -2.4760 O   0  0  0  0  0  0  0  0  0  0  0  0
   -1.9470   13.9040   -3.4410 C   0  0  2  0  0  0  0  0  0  0  0  0
   -0.1700   15.1690    0.9030 C   0  0  0  0  0  0  0  0  0  0  0  0
   -1.2730   12.6460   -3.2310 O   0  0  0  0  0  0  0  0  0  0  0  0
   -0.4730   15.7980   -3.5160 C   0  0  1  0  0  0  0  0  0  0  0  0
   -1.0480   14.7180   -4.4120 C   0  0  1  0  0  0  0  0  0  0  0  0
   -0.0290   17.0980   -4.2370 C   0  0  0  0  0  0  0  0  0  0  0  0
   -0.0240   13.8880   -4.9900 O   0  0  0  0  0  0  0  0  0  0  0  0
   -0.3820   17.1070   -5.6300 O   0  0  0  0  0  0  0  0  0  0  0  0
   -1.5640   18.0830   -6.0730 P   0  0  1  0  0  0  0  0  0  0  0  0
   -2.5880   17.4790   -6.9500 O   0  0  0  0  0  0  0  0  0  0  0  0
   -2.1800   18.4640   -4.6830 O   0  0  0  0  0  0  0  0  0  0  0  0
   -0.9790   19.4590   -6.5430 O   0  0  0  0  0  0  0  0  0  0  0  0
   -0.2430   19.8630   -7.8640 P   0  0  1  0  0  0  0  0  0  0  0  0
    1.0390   20.5680   -7.6150 O   0  0  0  0  0  0  0  0  0  0  0  0
   -0.0200   18.5240   -8.7220 O   0  0  0  0  0  0  0  0  0  0  0  0
   -1.2850   20.6600   -8.7480 O   0  0  0  0  0  0  0  0  0  0  0  0
   -1.9520   21.7390   -8.1230 C   0  0  0  0  0  0  0  0  0  0  0  0
   -3.3010   21.9540   -8.8040 C   0  0  2  0  0  0  0  0  0  0  0  0
   -3.8840   23.3610   -8.4440 C   0  0  1  0  0  0  0  0  0  0  0  0
   -4.2500   20.9800   -8.2920 O   0  0  0  0  0  0  0  0  0  0  0  0
   -4.7550   23.8790   -9.4670 O   0  0  0  0  0  0  0  0  0  0  0  0
   -5.2140   21.6250   -7.4720 C   0  0  2  0  0  0  0  0  0  0  0  0
   -4.6940   23.0430   -7.1940 C   0  0  2  0  0  0  0  0  0  0  0  0
   -5.2420   20.9050   -6.2430 O   0  0  0  0  0  0  0  0  0  0  0  0
   -5.7310   23.9800   -6.9440 O   0  0  0  0  0  0  0  0  0  0  0  0
  2  1  1  1
  2  3  1  0
  2  4  1  0
  2  5  1  0
  4  6  1  1
  5  7  1  0
  3  8  1  0
  4  9  1  0
  5 10  1  1
  8 11  2  0
  7 12  1  1
  8 12  1  0
  7 13  1  0
  7 14  1  0
  9 15  1  0
 10 15  1  0
 14 16  1  1
 13 17  1  0
 14 18  1  0
 17 18  1  0
 17 19  1  6
 18 20  1  1
 19 21  1  0
 21 22  1  0
 22 23  2  0
 22 24  1  1
 22 25  1  0
 25 26  1  0
 26 27  2  0
 26 28  1  6
 26 29  1  0
 29 30  1  0
 31 30  1  1
 31 32  1  0
 31 33  1  0
 32 34  1  6
 33 35  1  0
 32 36  1  0
 35 36  1  0
 35 37  1  1
 36 38  1  6
M  END
>  <%Rank>  (61) 
59.405941

>  <N_hits>  (61) 
2

>  <submitter_name>  (61) 
nan

>  <original SMILES>  (61) 
nan

>  <∆G_unbound>  (61) 
7.012888

>  <∆G_bound>  (61) 
-9.496285

>  <regarded>  (61) 
mArh-x0895_1_A,mArh-5cb5_I_0_I

>  <ref_pdb>  (61) 
nan

>  <smiles>  (61) 
NC1NCNC2C1(O)NC(=O)NC21OC(CO[P@@](=O)(O)O[P@@](=O)(O)OCC2OC(O)C(O)C2O)C(O)C1O

>  <submitter_email>  (61) 
nan

>  <disregarded>  (61) 


>  <LE>  (61) 
-0.434452

>  <submitter_institution>  (61) 
nan

>  <ref_mols>  (61) 
mArh-x0895_1_A,mArh-5cb5_I_0_I

>  <N_constrained_atoms>  (61) 
38.0

>  <ref_url>  (61) 
nan

>  <method>  (61) 
nan

>  <comRMSD>  (61) 
1.006676

>  <N_unconstrained_atoms>  (61) 
0.0

>  <∆∆G>  (61) 
-16.509173

>  <runtime>  (61) 
39.848853

>  <generation_date>  (61) 
nan

$$$$
mArh-x0766_0_A-mArh-x0438_0_A
     RDKit          3D

 25 28  0  0  0  0  0  0  0  0999 V2000
    0.4710   12.3450   -2.3810 C   0  0  0  0  0  0  0  0  0  0  0  0
    0.0790   11.2980   -3.1270 O   0  0  0  0  0  0  0  0  0  0  0  0
    0.4380   12.3120   -1.1760 O   0  0  0  0  0  0  0  0  0  0  0  0
    0.9550   13.5390   -3.1300 C   0  0  1  0  0  0  0  0  0  0  0  0
    1.0980   13.5000   -4.6420 C   0  0  0  0  0  0  0  0  0  0  0  0
    0.2010   14.8470   -2.7450 C   0  0  1  0  0  0  0  0  0  0  0  0
    1.3270   14.9760   -4.8610 C   0  0  0  0  0  0  0  0  0  0  0  0
    0.4250   15.7820   -3.9490 C   0  0  0  0  0  0  0  0  0  0  0  0
   -1.2590   14.8450   -2.3310 C   0  0  0  0  0  0  0  0  0  0  0  0
   -2.3710   15.0000   -3.1200 C   0  0  0  0  0  0  0  0  0  0  0  0
   -1.5850   14.6710   -0.7560 C   0  0  0  0  0  0  0  0  0  0  0  0
   -2.9160   14.7130   -0.4520 C   0  0  0  0  0  0  0  0  0  0  0  0
   -3.6710   14.9200   -1.9730 S   0  0  0  0  0  0  0  0  0  0  0  0
   -5.4220   14.9840   -1.9790 C   0  0  0  0  0  0  0  0  0  0  0  0
   -3.7490   14.6210    0.7320 C   0  0  0  0  0  0  0  0  0  0  0  0
   -5.1320   14.6420    0.6280 C   0  0  0  0  0  0  0  0  0  0  0  0
   -5.9700   14.7720   -0.6280 C   0  0  0  0  0  0  0  0  0  0  0  0
   -7.2510   14.6230   -0.4030 N   0  0  0  0  0  0  0  0  0  0  0  0
   -6.0410   14.5010    1.6490 N   0  0  0  0  0  0  0  0  0  0  0  0
   -7.3240   14.4230    0.9600 C   0  0  0  0  0  0  0  0  0  0  0  0
   -8.6470   14.1270    1.5820 C   0  0  0  0  0  0  0  0  0  0  0  0
   -9.3220   15.3830    2.6290 S   0  0  0  0  0  0  0  0  0  0  0  0
   -8.1510   15.6390    3.9470 C   0  0  0  0  0  0  0  0  0  0  0  0
  -10.5380   14.8660    3.2220 O   0  0  0  0  0  0  0  0  0  0  0  0
   -9.4010   16.5820    1.8270 O   0  0  0  0  0  0  0  0  0  0  0  0
  1  2  1  0
  1  3  2  0
  4  1  1  6
  4  5  1  0
  4  6  1  0
  5  7  1  0
  6  8  1  0
  7  8  1  0
  6  9  1  6
  9 10  2  0
  9 11  1  0
 11 12  2  0
 10 13  1  0
 12 13  1  0
 13 14  2  0
 12 15  1  0
 15 16  2  0
 14 17  1  0
 16 17  1  0
 17 18  2  0
 16 19  1  0
 18 20  1  0
 19 20  2  0
 20 21  1  0
 22 21  1  0
 22 23  1  0
 22 24  2  0
 22 25  2  0
M  END
>  <%Rank>  (62) 
60.39604

>  <N_hits>  (62) 
2

>  <submitter_name>  (62) 
nan

>  <original SMILES>  (62) 
nan

>  <∆G_unbound>  (62) 
0.721029

>  <∆G_bound>  (62) 
-6.798533

>  <regarded>  (62) 
mArh-x0766_0_A,mArh-x0438_0_A

>  <ref_pdb>  (62) 
nan

>  <smiles>  (62) 
CS(=O)(=O)CC1=NC2=CC3=CC(C4CCCC4C(=O)O)=CS3=CC2=N1

>  <submitter_email>  (62) 
nan

>  <disregarded>  (62) 


>  <LE>  (62) 
-0.300783

>  <submitter_institution>  (62) 
nan

>  <ref_mols>  (62) 
mArh-x0766_0_A,mArh-x0438_0_A

>  <N_constrained_atoms>  (62) 
25.0

>  <ref_url>  (62) 
nan

>  <method>  (62) 
nan

>  <comRMSD>  (62) 
0.792326

>  <N_unconstrained_atoms>  (62) 
0.0

>  <∆∆G>  (62) 
-7.519563

>  <runtime>  (62) 
22.134696

>  <generation_date>  (62) 
nan

$$$$
mArh-x1012_0_A-mArh-x0900_1_A
     RDKit          3D

 20 21  0  0  0  0  0  0  0  0999 V2000
   -0.2860   18.1540   -4.6520 N   0  0  0  0  0  0  0  0  0  0  0  0
   -1.2240   17.1900   -4.7690 C   0  0  0  0  0  0  0  0  0  0  0  0
   -2.3950   17.5370   -4.7780 O   0  0  0  0  0  0  0  0  0  0  0  0
   -0.7910   15.8820   -4.8350 N   0  0  0  0  0  0  0  0  0  0  0  0
   -1.7270   14.7530   -4.7620 C   0  0  0  0  0  0  0  0  0  0  0  0
    0.6500   15.5900   -4.6770 C   0  0  0  0  0  0  0  0  0  0  0  0
   -1.4590   13.8620   -3.5630 C   0  0  0  0  0  0  0  0  0  0  0  0
    0.9510   14.6010   -3.5340 C   0  0  0  0  0  0  0  0  0  0  0  0
   -0.0070   13.3880   -3.5610 C   0  0  0  0  0  0  0  0  0  0  0  0
    0.1790   12.4200   -2.3870 C   0  0  0  0  0  0  0  0  0  0  0  0
   -0.0540   11.1130   -2.7600 O   0  0  0  0  0  0  0  0  0  0  0  0
    0.4870   12.7400   -1.2450 O   0  0  0  0  0  0  0  0  0  0  0  0
   -1.0070   10.8310   -3.8260 C   0  0  0  0  0  0  0  0  0  0  0  0
   -0.2590   10.1520   -4.9660 C   0  0  0  0  0  0  0  0  0  0  0  0
   -1.0090    9.8800   -6.2740 C   0  0  1  0  0  0  0  0  0  0  0  0
   -0.1680    9.7570   -7.4320 N   0  0  0  0  0  0  0  0  0  0  0  0
   -1.6960    8.5320   -6.3770 C   0  0  0  0  0  0  0  0  0  0  0  0
   -0.9600    9.3620   -8.4780 C   0  0  0  0  0  0  0  0  0  0  0  0
   -2.0540    8.5120   -7.8710 C   0  0  0  0  0  0  0  0  0  0  0  0
   -0.8030    9.6540   -9.6510 O   0  0  0  0  0  0  0  0  0  0  0  0
  1  2  1  0
  2  3  2  0
  2  4  1  0
  4  5  1  0
  4  6  1  0
  5  7  1  0
  6  8  1  0
  7  9  1  0
  8  9  1  0
  9 10  1  0
 10 11  1  0
 10 12  2  0
 11 13  1  0
 13 14  1  0
 15 14  1  1
 15 16  1  0
 15 17  1  0
 16 18  1  0
 17 19  1  0
 18 19  1  0
 18 20  2  0
M  END
>  <%Rank>  (63) 
61.386139

>  <N_hits>  (63) 
2

>  <submitter_name>  (63) 
nan

>  <original SMILES>  (63) 
nan

>  <∆G_unbound>  (63) 
0.294539

>  <∆G_bound>  (63) 
-6.419421

>  <regarded>  (63) 
mArh-x1012_0_A,mArh-x0900_1_A

>  <ref_pdb>  (63) 
nan

>  <smiles>  (63) 
NC(=O)N1CCC(C(=O)OCCC2CCC(=O)N2)CC1

>  <submitter_email>  (63) 
nan

>  <disregarded>  (63) 


>  <LE>  (63) 
-0.335698

>  <submitter_institution>  (63) 
nan

>  <ref_mols>  (63) 
mArh-x1012_0_A,mArh-x0900_1_A

>  <N_constrained_atoms>  (63) 
18.0

>  <ref_url>  (63) 
nan

>  <method>  (63) 
nan

>  <comRMSD>  (63) 
0.633178

>  <N_unconstrained_atoms>  (63) 
2.0

>  <∆∆G>  (63) 
-6.71396

>  <runtime>  (63) 
35.69264

>  <generation_date>  (63) 
nan

$$$$
mArh-5cms_P_15_P-mArh-x0685_1_A
     RDKit          3D

 47 51  0  0  0  0  0  0  0  0999 V2000
   -1.6420   17.9720   -6.0940 P   0  0  1  0  0  0  0  0  0  0  0  0
   -0.3030   17.0710   -6.2420 O   0  0  0  0  0  0  0  0  0  0  0  0
    0.5690   16.5320   -5.2330 C   0  0  0  0  0  0  0  0  0  0  0  0
   -2.8550   17.3330   -6.6600 O   0  0  0  0  0  0  0  0  0  0  0  0
   -1.7320   18.3460   -4.5570 O   0  0  0  0  0  0  0  0  0  0  0  0
   -1.3710   19.3740   -6.7530 O   0  0  0  0  0  0  0  0  0  0  0  0
   -0.2290   19.6360   -7.7960 P   0  0  1  0  0  0  0  0  0  0  0  0
    1.0680   20.1560   -7.3030 O   0  0  0  0  0  0  0  0  0  0  0  0
   -0.0490   18.2780   -8.5960 O   0  0  0  0  0  0  0  0  0  0  0  0
   -0.9000   20.3600   -9.0270 O   0  0  0  0  0  0  0  0  0  0  0  0
   -0.0710   15.7160   -4.0670 C   0  0  1  0  0  0  0  0  0  0  0  0
   -1.7760   21.4420   -8.8660 C   0  0  0  0  0  0  0  0  0  0  0  0
   -1.4920   15.7930   -4.0800 O   0  0  0  0  0  0  0  0  0  0  0  0
    0.1900   14.2090   -3.8140 C   0  0  2  0  0  0  0  0  0  0  0  0
    1.2740   13.4640   -4.2610 O   0  0  0  0  0  0  0  0  0  0  0  0
   -1.1110   13.4420   -3.8680 C   0  0  1  0  0  0  0  0  0  0  0  0
   -2.0640   14.5640   -3.5470 C   0  0  1  0  0  0  0  0  0  0  0  0
   -1.9420   22.0900  -10.2370 C   0  0  2  0  0  0  0  0  0  0  0  0
   -1.3980   12.7480   -5.1020 O   0  0  0  0  0  0  0  0  0  0  0  0
    1.7260   12.4030   -3.1360 S   0  0  0  0  0  0  0  0  0  0  0  0
   -1.2640   23.4410  -10.4120 C   0  0  1  0  0  0  0  0  0  0  0  0
   -3.3350   22.2690  -10.5090 O   0  0  0  0  0  0  0  0  0  0  0  0
   -2.5050   14.7750   -2.1630 N   0  0  0  0  0  0  0  0  0  0  0  0
    0.0700   23.3890  -10.9100 O   0  0  0  0  0  0  0  0  0  0  0  0
   -1.3420   11.2750   -4.9540 N   0  0  0  0  0  0  0  0  0  0  0  0
    3.1550   12.2760   -3.1950 O   0  0  0  0  0  0  0  0  0  0  0  0
    0.8130   11.2760   -3.0660 O   0  0  0  0  0  0  0  0  0  0  0  0
    1.4310   13.2310   -1.7860 O   0  0  0  0  0  0  0  0  0  0  0  0
   -3.4330   23.2790  -11.4980 C   0  0  2  0  0  0  0  0  0  0  0  0
   -2.2210   24.1920  -11.3340 C   0  0  2  0  0  0  0  0  0  0  0  0
   -1.9190   14.6750   -0.8870 C   0  0  0  0  0  0  0  0  0  0  0  0
   -3.7960   15.1680   -1.9730 C   0  0  0  0  0  0  0  0  0  0  0  0
   -4.6010   24.0510  -11.2420 O   0  0  0  0  0  0  0  0  0  0  0  0
   -1.6510   24.7020  -12.5120 O   0  0  0  0  0  0  0  0  0  0  0  0
   -2.9640   15.0320   -0.0450 C   0  0  0  0  0  0  0  0  0  0  0  0
   -0.6760   14.3360   -0.4550 N   0  0  0  0  0  0  0  0  0  0  0  0
   -4.1020   15.3300   -0.7290 N   0  0  0  0  0  0  0  0  0  0  0  0
   -0.7680   10.7370   -6.2130 C   0  0  0  0  0  0  0  0  0  0  0  0
   -2.7580   15.0510    1.3140 C   0  0  0  0  0  0  0  0  0  0  0  0
   -0.5870   14.3860    0.9050 C   0  0  0  0  0  0  0  0  0  0  0  0
   -0.6880    9.1970   -6.1940 C   0  0  0  0  0  0  0  0  0  0  0  0
   -1.5960   11.2200   -7.4110 C   0  0  0  0  0  0  0  0  0  0  0  0
   -3.8080   15.4170    2.1410 N   0  0  0  0  0  0  0  0  0  0  0  0
   -1.5440   14.7160    1.8080 N   0  0  0  0  0  0  0  0  0  0  0  0
   -0.0860    8.6580   -7.4980 C   0  0  0  0  0  0  0  0  0  0  0  0
   -1.0250   10.7050   -8.7340 C   0  0  0  0  0  0  0  0  0  0  0  0
   -0.8450    9.1870   -8.7220 C   0  0  0  0  0  0  0  0  0  0  0  0
  1  2  1  0
  2  3  1  0
  1  4  2  0
  1  5  1  1
  1  6  1  0
  6  7  1  0
  7  8  2  0
  7  9  1  6
  7 10  1  0
 11  3  1  6
 10 12  1  0
 11 13  1  0
 11 14  1  0
 14 15  1  6
 14 16  1  0
 13 17  1  0
 16 17  1  0
 18 12  1  1
 16 19  1  6
 20 15  1  0
 18 21  1  0
 18 22  1  0
 17 23  1  1
 21 24  1  6
 19 25  1  0
 20 26  2  0
 20 27  2  0
 20 28  1  0
 22 29  1  0
 21 30  1  0
 29 30  1  0
 23 31  1  0
 23 32  1  0
 29 33  1  1
 30 34  1  6
 31 35  2  0
 31 36  1  0
 32 37  2  0
 35 37  1  0
 25 38  1  0
 35 39  1  0
 36 40  2  0
 38 41  1  0
 38 42  1  0
 39 43  1  0
 39 44  2  0
 40 44  1  0
 41 45  1  0
 42 46  1  0
 45 47  1  0
 46 47  1  0
M  END
>  <%Rank>  (64) 
62.376238

>  <N_hits>  (64) 
2

>  <submitter_name>  (64) 
nan

>  <original SMILES>  (64) 
nan

>  <∆G_unbound>  (64) 
6.022294

>  <∆G_bound>  (64) 
-10.10093

>  <regarded>  (64) 
mArh-5cms_P_15_P,mArh-x0685_1_A

>  <ref_pdb>  (64) 
nan

>  <smiles>  (64) 
Nc1ncnc2c1ncn2C1OC(CO[P@@](=O)(O)O[P@@](=O)(O)OCC2OC(O)C(O)C2O)C(OS(=O)(=O)O)C1ONC1CCCCC1

>  <submitter_email>  (64) 
nan

>  <disregarded>  (64) 


>  <LE>  (64) 
-0.343047

>  <submitter_institution>  (64) 
nan

>  <ref_mols>  (64) 
mArh-5cms_P_15_P,mArh-x0685_1_A

>  <N_constrained_atoms>  (64) 
47.0

>  <ref_url>  (64) 
nan

>  <method>  (64) 
nan

>  <comRMSD>  (64) 
1.038961

>  <N_unconstrained_atoms>  (64) 
0.0

>  <∆∆G>  (64) 
-16.123224

>  <runtime>  (64) 
58.565998

>  <generation_date>  (64) 
nan

$$$$
mArh-3ew5_B_0_B-mArh-x0918_1_B
     RDKit          3D

 22 22  0  0  0  0  0  0  0  0999 V2000
   -0.3280   19.8920   -7.8550 P   0  0  0  0  0  0  0  0  0  0  0  0
   -1.5470   20.9060   -8.1750 O   0  0  0  0  0  0  0  0  0  0  0  0
   -2.6300   20.9980   -7.2380 C   0  0  0  0  0  0  0  0  0  0  0  0
    0.0310   18.8490   -8.8430 O   0  0  0  0  0  0  0  0  0  0  0  0
   -0.7300   19.3050   -6.4380 O   0  0  0  0  0  0  0  0  0  0  0  0
    0.9130   20.8470   -7.4970 O   0  0  0  0  0  0  0  0  0  0  0  0
   -3.8080   21.9710   -7.5810 C   0  0  2  0  0  0  0  0  0  0  0  0
   -4.9200   21.9200   -6.5150 C   0  0  0  0  0  0  0  0  0  0  0  0
   -4.5410   21.6380   -8.7840 O   0  0  0  0  0  0  0  0  0  0  0  0
   -5.3060   23.2380   -6.1210 O   0  0  0  0  0  0  0  0  0  0  0  0
   -4.3640   22.4850   -9.9160 C   0  0  0  0  0  0  0  0  0  0  0  0
   -5.6930   22.8840  -10.5880 C   0  0  0  0  0  0  0  0  0  0  0  0
   -5.9540   24.3930  -10.4280 C   0  0  0  0  0  0  0  0  0  0  0  0
   -6.1250   25.2840  -11.6930 C   0  0  0  0  0  0  0  0  0  0  0  0
   -5.6660   26.7230  -11.3790 C   0  0  0  0  0  0  0  0  0  0  0  0
   -5.7050   27.8700  -12.3690 C   0  0  0  0  0  0  0  0  0  0  0  0
   -6.9050   28.4340  -12.6160 N   0  0  0  0  0  0  0  0  0  0  0  0
   -4.5250   28.3110  -12.9770 C   0  0  0  0  0  0  0  0  0  0  0  0
   -4.5770   29.3690  -13.8830 C   0  0  0  0  0  0  0  0  0  0  0  0
   -6.9310   29.4530  -13.4930 C   0  0  0  0  0  0  0  0  0  0  0  0
   -3.4200   29.8360  -14.5130 N   0  0  0  0  0  0  0  0  0  0  0  0
   -5.8110   29.9450  -14.1430 C   0  0  0  0  0  0  0  0  0  0  0  0
  1  2  1  0
  2  3  1  0
  1  4  2  0
  1  5  1  0
  1  6  1  0
  7  3  1  1
  7  8  1  0
  7  9  1  0
  8 10  1  0
  9 11  1  0
 11 12  1  0
 12 13  1  0
 13 14  1  0
 14 15  1  0
 15 16  1  0
 16 17  2  0
 16 18  1  0
 18 19  2  0
 17 20  1  0
 19 21  1  0
 19 22  1  0
 20 22  2  0
M  END
>  <%Rank>  (65) 
63.366337

>  <N_hits>  (65) 
2

>  <submitter_name>  (65) 
nan

>  <original SMILES>  (65) 
nan

>  <∆G_unbound>  (65) 
2.488641

>  <∆G_bound>  (65) 
-11.458941

>  <regarded>  (65) 
mArh-3ew5_B_0_B,mArh-x0918_1_B

>  <ref_pdb>  (65) 
nan

>  <smiles>  (65) 
Nc1ccnc(CCCCCO[C@@H](CO)COP(=O)(O)O)c1

>  <submitter_email>  (65) 
nan

>  <disregarded>  (65) 


>  <LE>  (65) 
-0.633981

>  <submitter_institution>  (65) 
nan

>  <ref_mols>  (65) 
mArh-3ew5_B_0_B,mArh-x0918_1_B

>  <N_constrained_atoms>  (65) 
17.0

>  <ref_url>  (65) 
nan

>  <method>  (65) 
nan

>  <comRMSD>  (65) 
0.683141

>  <N_unconstrained_atoms>  (65) 
5.0

>  <∆∆G>  (65) 
-13.947583

>  <runtime>  (65) 
29.768402

>  <generation_date>  (65) 
nan

$$$$
mArh-x0926_0_A-mArh-5cb3_0_A
     RDKit          3D

 38 41  0  0  0  0  0  0  0  0999 V2000
   -5.9670   15.8350   -1.0370 O   0  0  0  0  0  0  0  0  0  0  0  0
   -4.9280   15.2050   -1.2090 C   0  0  0  0  0  0  0  0  0  0  0  0
   -4.7610   13.9310   -0.5130 C   0  0  0  0  0  0  0  0  0  0  0  0
   -3.8680   15.5840   -2.0480 N   0  0  0  0  0  0  0  0  0  0  0  0
   -2.4650   15.0350   -2.0020 C   0  0  2  0  0  0  0  0  0  0  0  0
   -3.5420   13.5350   -0.2160 C   0  0  0  0  0  0  0  0  0  0  0  0
   -2.3570   14.4160   -0.5570 C   0  0  2  0  0  0  0  0  0  0  0  0
   -1.4900   16.1260   -2.2610 O   0  0  0  0  0  0  0  0  0  0  0  0
   -2.1460   14.0680   -3.2830 C   0  0  2  0  0  0  0  0  0  0  0  0
   -1.9660   12.6680   -3.0250 O   0  0  0  0  0  0  0  0  0  0  0  0
   -0.4540   15.7590   -3.2470 C   0  0  1  0  0  0  0  0  0  0  0  0
   -0.9950   14.5390   -3.9370 C   0  0  1  0  0  0  0  0  0  0  0  0
   -2.5330   15.1890    0.7880 C   0  0  2  0  0  0  0  0  0  0  0  0
   -0.9940   13.6930   -0.3740 C   0  0  0  0  0  0  0  0  0  0  0  0
   -0.0610   16.9020   -4.1950 C   0  0  0  0  0  0  0  0  0  0  0  0
    0.0190   13.5150   -4.0650 O   0  0  0  0  0  0  0  0  0  0  0  0
   -3.4340   16.3030    0.9140 N   0  0  0  0  0  0  0  0  0  0  0  0
   -1.2800   15.4210    1.4180 N   0  0  0  0  0  0  0  0  0  0  0  0
    0.1400   14.6170   -0.2470 N   0  0  0  0  0  0  0  0  0  0  0  0
   -0.7380   16.7870   -5.4450 O   0  0  0  0  0  0  0  0  0  0  0  0
   -0.2170   15.7430    0.5200 C   0  0  0  0  0  0  0  0  0  0  0  0
   -1.4880   18.0740   -6.0030 P   0  0  1  0  0  0  0  0  0  0  0  0
   -2.5540   17.7620   -6.9490 O   0  0  0  0  0  0  0  0  0  0  0  0
   -1.9390   18.7530   -4.6570 O   0  0  0  0  0  0  0  0  0  0  0  0
   -0.3350   19.0090   -6.4970 O   0  0  0  0  0  0  0  0  0  0  0  0
   -0.1990   19.7900   -7.8470 P   0  0  1  0  0  0  0  0  0  0  0  0
    0.8710   20.9730   -7.8630 O   0  0  0  0  0  0  0  0  0  0  0  0
    0.0360   18.6850   -8.8260 O   0  0  0  0  0  0  0  0  0  0  0  0
   -1.6750   20.2260   -8.2490 O   0  0  0  0  0  0  0  0  0  0  0  0
   -2.0550   21.5870   -8.1000 C   0  0  0  0  0  0  0  0  0  0  0  0
   -3.4370   21.8970   -8.6930 C   0  0  2  0  0  0  0  0  0  0  0  0
   -3.8500   23.3380   -8.3860 C   0  0  1  0  0  0  0  0  0  0  0  0
   -4.4420   21.0400   -8.0870 O   0  0  0  0  0  0  0  0  0  0  0  0
   -4.7050   23.9120   -9.3610 O   0  0  0  0  0  0  0  0  0  0  0  0
   -5.2830   21.8590   -7.2650 C   0  0  2  0  0  0  0  0  0  0  0  0
   -4.5270   23.1610   -7.0400 C   0  0  2  0  0  0  0  0  0  0  0  0
   -5.4920   21.2820   -5.9870 O   0  0  0  0  0  0  0  0  0  0  0  0
   -5.4720   24.2140   -6.7750 O   0  0  0  0  0  0  0  0  0  0  0  0
  1  2  2  0
  2  3  1  0
  2  4  1  0
  5  4  1  6
  3  6  2  0
  5  7  1  0
  7  6  1  6
  5  8  1  0
  5  9  1  0
  9 10  1  1
  8 11  1  0
  9 12  1  0
 11 12  1  0
  7 13  1  0
  7 14  1  0
 11 15  1  6
 12 16  1  1
 13 17  1  6
 13 18  1  0
 14 19  1  0
 15 20  1  0
 18 21  1  0
 19 21  1  0
 20 22  1  0
 22 23  2  0
 22 24  1  1
 22 25  1  0
 25 26  1  0
 26 27  2  0
 26 28  1  6
 26 29  1  0
 29 30  1  0
 31 30  1  1
 31 32  1  0
 31 33  1  0
 32 34  1  6
 33 35  1  0
 32 36  1  0
 35 36  1  0
 35 37  1  1
 36 38  1  6
M  END
>  <%Rank>  (66) 
64.356436

>  <N_hits>  (66) 
2

>  <submitter_name>  (66) 
nan

>  <original SMILES>  (66) 
nan

>  <∆G_unbound>  (66) 
7.66385

>  <∆G_bound>  (66) 
-12.497007

>  <regarded>  (66) 
mArh-x0926_0_A,mArh-5cb3_0_A

>  <ref_pdb>  (66) 
nan

>  <smiles>  (66) 
NC1NCNCC12C=CC(=O)NC21OC(CO[P@@](=O)(O)O[P@@](=O)(O)OCC2OC(O)C(O)C2O)C(O)C1O

>  <submitter_email>  (66) 
nan

>  <disregarded>  (66) 


>  <LE>  (66) 
-0.530549

>  <submitter_institution>  (66) 
nan

>  <ref_mols>  (66) 
mArh-x0926_0_A,mArh-5cb3_0_A

>  <N_constrained_atoms>  (66) 
38.0

>  <ref_url>  (66) 
nan

>  <method>  (66) 
nan

>  <comRMSD>  (66) 
1.092081

>  <N_unconstrained_atoms>  (66) 
0.0

>  <∆∆G>  (66) 
-20.160857

>  <runtime>  (66) 
25.241038

>  <generation_date>  (66) 
nan

$$$$
mArh-5cms_H_7_H-mArh-x0465_0_A
     RDKit          3D

 48 52  0  0  0  0  0  0  0  0999 V2000
   -2.0160   17.7080   -6.0470 P   0  0  1  0  0  0  0  0  0  0  0  0
   -0.6120   16.9410   -5.9050 O   0  0  0  0  0  0  0  0  0  0  0  0
    0.3040   17.1980   -4.8440 C   0  0  0  0  0  0  0  0  0  0  0  0
   -3.1910   16.7960   -6.1340 O   0  0  0  0  0  0  0  0  0  0  0  0
   -2.0410   18.7480   -4.8260 O   0  0  0  0  0  0  0  0  0  0  0  0
   -1.8020   18.5990   -7.3100 O   0  0  0  0  0  0  0  0  0  0  0  0
   -0.4080   19.2740   -7.6160 P   0  0  1  0  0  0  0  0  0  0  0  0
    0.6320   19.2490   -6.5660 O   0  0  0  0  0  0  0  0  0  0  0  0
    0.0930   18.4790   -8.8940 O   0  0  0  0  0  0  0  0  0  0  0  0
   -0.7550   20.7080   -8.2090 O   0  0  0  0  0  0  0  0  0  0  0  0
    0.8310   15.8600   -4.3000 C   0  0  1  0  0  0  0  0  0  0  0  0
   -2.0500   21.2460   -7.9500 C   0  0  0  0  0  0  0  0  0  0  0  0
    0.3930   15.7260   -2.9460 O   0  0  0  0  0  0  0  0  0  0  0  0
    0.2280   14.6370   -5.0070 C   0  0  1  0  0  0  0  0  0  0  0  0
    1.1000   13.5240   -4.8890 O   0  0  0  0  0  0  0  0  0  0  0  0
   -1.1420   14.4850   -4.2930 C   0  0  2  0  0  0  0  0  0  0  0  0
   -0.9960   15.5170   -3.1750 C   0  0  1  0  0  0  0  0  0  0  0  0
   -2.3730   22.0330   -9.1820 C   0  0  2  0  0  0  0  0  0  0  0  0
   -1.4060   13.1740   -3.8030 O   0  0  0  0  0  0  0  0  0  0  0  0
    0.4160   12.3590   -4.4980 C   0  0  1  0  0  0  0  0  0  0  0  0
   -2.5380   23.5060   -8.9500 C   0  0  1  0  0  0  0  0  0  0  0  0
   -3.5470   21.5820   -9.8870 O   0  0  0  0  0  0  0  0  0  0  0  0
   -1.8080   15.4400   -1.9880 N   0  0  0  0  0  0  0  0  0  0  0  0
   -1.2910   24.1800   -8.9200 O   0  0  0  0  0  0  0  0  0  0  0  0
    0.6110   11.2720   -5.4080 O   0  0  0  0  0  0  0  0  0  0  0  0
    0.7930   11.8780   -3.0760 C   0  0  0  0  0  0  0  0  0  0  0  0
   -4.0320   22.6450  -10.6780 C   0  0  2  0  0  0  0  0  0  0  0  0
   -3.5550   23.9230  -10.0530 C   0  0  2  0  0  0  0  0  0  0  0  0
   -1.4910   15.2100   -0.6750 C   0  0  0  0  0  0  0  0  0  0  0  0
   -3.1560   15.6330   -2.0580 C   0  0  0  0  0  0  0  0  0  0  0  0
   -5.4340   22.7260  -10.6180 O   0  0  0  0  0  0  0  0  0  0  0  0
   -3.1860   24.8910  -11.0470 O   0  0  0  0  0  0  0  0  0  0  0  0
    1.4310   12.5100   -2.2480 O   0  0  0  0  0  0  0  0  0  0  0  0
    0.3620   10.6380   -2.7430 O   0  0  0  0  0  0  0  0  0  0  0  0
   -2.7140   15.3070   -0.0230 C   0  0  0  0  0  0  0  0  0  0  0  0
   -0.3040   14.9550   -0.1050 N   0  0  0  0  0  0  0  0  0  0  0  0
   -3.7380   15.5620   -0.8970 N   0  0  0  0  0  0  0  0  0  0  0  0
   -0.5630   10.6040   -5.6400 C   0  0  0  0  0  0  0  0  0  0  0  0
   -2.7230   15.1480    1.3500 C   0  0  0  0  0  0  0  0  0  0  0  0
   -0.4420   14.7980    1.2180 C   0  0  0  0  0  0  0  0  0  0  0  0
   -0.6320    9.6760   -6.6820 C   0  0  0  0  0  0  0  0  0  0  0  0
   -1.6880   10.8370   -4.8490 C   0  0  0  0  0  0  0  0  0  0  0  0
   -3.8900   15.2740    2.0870 N   0  0  0  0  0  0  0  0  0  0  0  0
    0.4340    9.4330   -7.4570 F   0  0  0  0  0  0  0  0  0  0  0  0
   -1.5630   14.8760    1.9650 N   0  0  0  0  0  0  0  0  0  0  0  0
   -1.8100    8.9830   -6.9360 C   0  0  0  0  0  0  0  0  0  0  0  0
   -2.8690   10.1450   -5.1070 C   0  0  0  0  0  0  0  0  0  0  0  0
   -2.9310    9.2190   -6.1470 C   0  0  0  0  0  0  0  0  0  0  0  0
  1  2  1  0
  2  3  1  0
  1  4  2  0
  1  5  1  1
  1  6  1  0
  6  7  1  0
  7  8  2  0
  7  9  1  6
  7 10  1  0
 11  3  1  6
 10 12  1  0
 11 13  1  0
 11 14  1  0
 14 15  1  1
 14 16  1  0
 13 17  1  0
 16 17  1  0
 18 12  1  1
 16 19  1  1
 20 15  1  6
 18 21  1  0
 18 22  1  0
 17 23  1  1
 21 24  1  6
 20 25  1  0
 20 26  1  0
 22 27  1  0
 21 28  1  0
 27 28  1  0
 23 29  1  0
 23 30  1  0
 27 31  1  1
 28 32  1  6
 26 33  2  0
 26 34  1  0
 29 35  2  0
 29 36  1  0
 30 37  2  0
 35 37  1  0
 25 38  1  0
 35 39  1  0
 36 40  2  0
 38 41  2  0
 38 42  1  0
 39 43  1  0
 41 44  1  0
 39 45  2  0
 40 45  1  0
 41 46  1  0
 42 47  2  0
 46 48  2  0
 47 48  1  0
M  END
>  <%Rank>  (67) 
65.346535

>  <N_hits>  (67) 
2

>  <submitter_name>  (67) 
nan

>  <original SMILES>  (67) 
nan

>  <∆G_unbound>  (67) 
4.079529

>  <∆G_bound>  (67) 
-2.604616

>  <regarded>  (67) 
mArh-5cms_H_7_H,mArh-x0465_0_A

>  <ref_pdb>  (67) 
nan

>  <smiles>  (67) 
Nc1ncnc2c1ncn2C1OC(CO[P@@](=O)(O)O[P@@](=O)(O)OCC2OC(O)C(O)C2O)C(O[C@@H](Oc2ccccc2F)C(=O)O)C1O

>  <submitter_email>  (67) 
nan

>  <disregarded>  (67) 


>  <LE>  (67) 
-0.139253

>  <submitter_institution>  (67) 
nan

>  <ref_mols>  (67) 
mArh-5cms_H_7_H,mArh-x0465_0_A

>  <N_constrained_atoms>  (67) 
48.0

>  <ref_url>  (67) 
nan

>  <method>  (67) 
nan

>  <comRMSD>  (67) 
0.973857

>  <N_unconstrained_atoms>  (67) 
0.0

>  <∆∆G>  (67) 
-6.684144

>  <runtime>  (67) 
60.709295

>  <generation_date>  (67) 
nan

$$$$
mArh-1spv_0_A-mArh-5cms_N_13_N
     RDKit          3D

 42 46  0  0  0  0  0  0  0  0999 V2000
    0.6940   20.6690   -7.6440 O   0  0  0  0  0  0  0  0  0  0  0  0
   -0.5340   19.9520   -7.9170 S   0  0  0  0  0  0  0  0  0  0  0  0
   -0.4790   18.7320   -8.6900 O   0  0  0  0  0  0  0  0  0  0  0  0
   -1.3050   19.7540   -6.5320 O   0  0  0  0  0  0  0  0  0  0  0  0
   -1.6350   21.1360   -8.6670 C   0  0  0  0  0  0  0  0  0  0  0  0
   -3.0650   21.4890   -8.1840 C   0  0  1  0  0  0  0  0  0  0  0  0
   -1.5630   18.2330   -6.2380 P   0  0  2  0  0  0  0  0  0  0  0  0
   -0.1760   17.5230   -6.6170 O   0  0  0  0  0  0  0  0  0  0  0  0
   -2.7440   17.5440   -6.7570 O   0  0  0  0  0  0  0  0  0  0  0  0
   -1.5870   18.1910   -4.6360 O   0  0  0  0  0  0  0  0  0  0  0  0
   -3.2480   22.4720   -7.1700 N   0  0  0  0  0  0  0  0  0  0  0  0
   -3.9920   21.7490   -9.3110 N   0  0  0  0  0  0  0  0  0  0  0  0
    0.6530   16.9310   -5.6380 C   0  0  0  0  0  0  0  0  0  0  0  0
   -4.0040   23.6210   -7.7400 C   0  0  0  0  0  0  0  0  0  0  0  0
   -4.0630   21.9130   -6.0920 C   0  0  0  0  0  0  0  0  0  0  0  0
   -4.7390   23.0370   -9.5370 C   0  0  1  0  0  0  0  0  0  0  0  0
   -3.1990   21.7540  -10.4460 C   0  0  0  0  0  0  0  0  0  0  0  0
   -4.3020   24.0900   -8.7180 O   0  0  0  0  0  0  0  0  0  0  0  0
   -5.4490   23.3160   -8.2530 C   0  0  0  0  0  0  0  0  0  0  0  0
   -5.4980   22.3750   -6.1720 C   0  0  0  0  0  0  0  0  0  0  0  0
   -0.0150   15.7420   -4.9520 C   0  0  2  0  0  0  0  0  0  0  0  0
   -4.3720   23.5870  -10.9440 C   0  0  1  0  0  0  0  0  0  0  0  0
   -4.0790   22.2900  -11.5640 C   0  0  1  0  0  0  0  0  0  0  0  0
   -5.3860   24.2330  -11.7160 O   0  0  0  0  0  0  0  0  0  0  0  0
   -3.5550   22.3160  -12.8800 O   0  0  0  0  0  0  0  0  0  0  0  0
   -6.0600   22.3220   -7.4650 O   0  0  0  0  0  0  0  0  0  0  0  0
    0.5330   15.6930   -3.6410 O   0  0  0  0  0  0  0  0  0  0  0  0
    0.1050   14.2930   -5.4900 C   0  0  1  0  0  0  0  0  0  0  0  0
    1.2780   13.9080   -6.1650 O   0  0  0  0  0  0  0  0  0  0  0  0
   -0.0150   13.4310   -4.2610 C   0  0  2  0  0  0  0  0  0  0  0  0
    0.1630   14.4100   -3.1000 C   0  0  2  0  0  0  0  0  0  0  0  0
    1.0490   12.4660   -4.2640 O   0  0  0  0  0  0  0  0  0  0  0  0
   -1.0250   14.5810   -2.2990 N   0  0  0  0  0  0  0  0  0  0  0  0
   -0.9990   14.6700   -0.9520 C   0  0  0  0  0  0  0  0  0  0  0  0
   -2.3360   14.6810   -2.7000 C   0  0  0  0  0  0  0  0  0  0  0  0
   -2.3180   14.8230   -0.5650 C   0  0  0  0  0  0  0  0  0  0  0  0
    0.0890   14.6200   -0.1860 N   0  0  0  0  0  0  0  0  0  0  0  0
   -3.1520   14.8300   -1.6690 N   0  0  0  0  0  0  0  0  0  0  0  0
   -2.5450   14.9420    0.8230 C   0  0  0  0  0  0  0  0  0  0  0  0
   -0.2540   14.7380    1.1100 C   0  0  0  0  0  0  0  0  0  0  0  0
   -3.8060   15.1160    1.3790 N   0  0  0  0  0  0  0  0  0  0  0  0
   -1.4780   14.8900    1.6480 N   0  0  0  0  0  0  0  0  0  0  0  0
  1  2  2  0
  2  3  2  0
  2  4  1  0
  2  5  1  0
  6  5  1  6
  4  7  1  0
  7  8  1  0
  7  9  2  0
  7 10  1  1
  6 11  1  0
  6 12  1  0
  8 13  1  0
 11 14  1  0
 11 15  1  0
 12 16  1  0
 12 17  1  0
 16 18  1  1
 14 19  1  0
 15 20  1  0
 21 13  1  6
 16 22  1  0
 17 23  1  0
 22 23  1  0
 22 24  1  6
 23 25  1  6
 19 26  1  0
 20 26  1  0
 21 27  1  0
 21 28  1  0
 28 29  1  1
 28 30  1  0
 27 31  1  0
 30 31  1  0
 30 32  1  6
 31 33  1  6
 33 34  1  0
 33 35  1  0
 34 36  2  0
 34 37  1  0
 35 38  2  0
 36 38  1  0
 36 39  1  0
 37 40  2  0
 39 41  1  0
 39 42  2  0
 40 42  1  0
M  END
>  <%Rank>  (68) 
66.336634

>  <N_hits>  (68) 
2

>  <submitter_name>  (68) 
nan

>  <original SMILES>  (68) 
nan

>  <∆G_unbound>  (68) 
4.974976

>  <∆G_bound>  (68) 
-2.86575

>  <regarded>  (68) 
mArh-1spv_0_A,mArh-5cms_N_13_N

>  <ref_pdb>  (68) 
nan

>  <smiles>  (68) 
Nc1ncnc2c1ncn2C1OC(CO[P@@](=O)(O)OS(=O)(=O)CC(N2CCOCC2)N2CC(O)C(O)C2O)C(O)C1O

>  <submitter_email>  (68) 
nan

>  <disregarded>  (68) 


>  <LE>  (68) 
-0.186684

>  <submitter_institution>  (68) 
nan

>  <ref_mols>  (68) 
mArh-1spv_0_A,mArh-5cms_N_13_N

>  <N_constrained_atoms>  (68) 
42.0

>  <ref_url>  (68) 
nan

>  <method>  (68) 
nan

>  <comRMSD>  (68) 
0.956045

>  <N_unconstrained_atoms>  (68) 
0.0

>  <∆∆G>  (68) 
-7.840725

>  <runtime>  (68) 
79.921892

>  <generation_date>  (68) 
nan

$$$$
mArh-x0905_0_A-mArh-5cb5_A_0_A
     RDKit          3D

 38 41  0  0  0  0  0  0  0  0999 V2000
   -6.4730   15.1350   -1.4410 O   0  0  0  0  0  0  0  0  0  0  0  0
   -5.1270   15.3870   -1.0700 C   0  0  1  0  0  0  0  0  0  0  0  0
   -4.9110   14.4890    0.0770 N   0  0  0  0  0  0  0  0  0  0  0  0
   -4.1540   15.1510   -2.2810 C   0  0  0  0  0  0  0  0  0  0  0  0
   -3.7670   13.6150   -0.1800 C   0  0  0  0  0  0  0  0  0  0  0  0
   -2.6260   14.8620   -1.9690 C   0  0  2  0  0  0  0  0  0  0  0  0
   -2.5180   14.4390   -0.4110 C   0  0  1  0  0  0  0  0  0  0  0  0
   -1.7410   16.0210   -2.3160 O   0  0  0  0  0  0  0  0  0  0  0  0
   -1.9420   13.7770   -2.9700 C   0  0  1  0  0  0  0  0  0  0  0  0
   -2.8530   12.9620   -3.7080 O   0  0  0  0  0  0  0  0  0  0  0  0
   -1.4360   15.9270   -3.7430 C   0  0  2  0  0  0  0  0  0  0  0  0
   -1.1060   14.4850   -4.0410 C   0  0  1  0  0  0  0  0  0  0  0  0
   -2.4750   15.4070    0.8120 C   0  0  2  0  0  0  0  0  0  0  0  0
   -1.2600   13.5770   -0.2290 C   0  0  0  0  0  0  0  0  0  0  0  0
   -0.3910   16.8740   -4.2960 C   0  0  0  0  0  0  0  0  0  0  0  0
    0.2920   14.1430   -4.0730 O   0  0  0  0  0  0  0  0  0  0  0  0
   -3.5380   16.3650    1.0010 N   0  0  0  0  0  0  0  0  0  0  0  0
   -1.2340   16.1060    0.8180 N   0  0  0  0  0  0  0  0  0  0  0  0
   -0.0850   14.4070   -0.3220 N   0  0  0  0  0  0  0  0  0  0  0  0
   -0.7230   17.0130   -5.6610 O   0  0  0  0  0  0  0  0  0  0  0  0
   -0.1090   15.2040    0.8770 C   0  0  0  0  0  0  0  0  0  0  0  0
   -1.5760   18.2720   -6.0900 P   0  0  1  0  0  0  0  0  0  0  0  0
   -2.6830   18.0010   -7.0300 O   0  0  0  0  0  0  0  0  0  0  0  0
   -2.0650   18.9110   -4.7320 O   0  0  0  0  0  0  0  0  0  0  0  0
   -0.4350   19.2440   -6.4820 O   0  0  0  0  0  0  0  0  0  0  0  0
   -0.2300   19.8480   -7.8770 P   0  0  1  0  0  0  0  0  0  0  0  0
    0.7440   20.9600   -7.9410 O   0  0  0  0  0  0  0  0  0  0  0  0
    0.0800   18.6070   -8.8330 O   0  0  0  0  0  0  0  0  0  0  0  0
   -1.7440   20.2140   -8.1970 O   0  0  0  0  0  0  0  0  0  0  0  0
   -2.0960   21.4810   -8.7010 C   0  0  0  0  0  0  0  0  0  0  0  0
   -3.2350   22.1460   -7.9740 C   0  0  1  0  0  0  0  0  0  0  0  0
   -3.7440   23.3680   -8.5000 C   0  0  1  0  0  0  0  0  0  0  0  0
   -4.3650   21.2810   -7.9590 O   0  0  0  0  0  0  0  0  0  0  0  0
   -4.1760   23.3430   -9.8670 O   0  0  0  0  0  0  0  0  0  0  0  0
   -5.4810   22.0250   -7.4770 C   0  0  2  0  0  0  0  0  0  0  0  0
   -5.0390   23.4660   -7.6670 C   0  0  2  0  0  0  0  0  0  0  0  0
   -5.7630   21.6760   -6.1250 O   0  0  0  0  0  0  0  0  0  0  0  0
   -6.0030   24.1840   -8.4490 O   0  0  0  0  0  0  0  0  0  0  0  0
  2  1  1  6
  2  3  1  0
  2  4  1  0
  3  5  1  0
  6  4  1  6
  7  5  1  1
  6  7  1  0
  6  8  1  0
  6  9  1  0
  9 10  1  6
  8 11  1  0
  9 12  1  0
 11 12  1  0
  7 13  1  0
  7 14  1  0
 11 15  1  1
 12 16  1  1
 13 17  1  6
 13 18  1  0
 14 19  1  0
 15 20  1  0
 18 21  1  0
 19 21  1  0
 20 22  1  0
 22 23  2  0
 22 24  1  1
 22 25  1  0
 25 26  1  0
 26 27  2  0
 26 28  1  6
 26 29  1  0
 29 30  1  0
 31 30  1  6
 31 32  1  0
 31 33  1  0
 32 34  1  6
 33 35  1  0
 32 36  1  0
 35 36  1  0
 35 37  1  1
 36 38  1  6
M  END
>  <%Rank>  (69) 
67.326733

>  <N_hits>  (69) 
2

>  <submitter_name>  (69) 
nan

>  <original SMILES>  (69) 
nan

>  <∆G_unbound>  (69) 
5.469591

>  <∆G_bound>  (69) 
-10.512476

>  <regarded>  (69) 
mArh-x0905_0_A,mArh-5cb5_A_0_A

>  <ref_pdb>  (69) 
nan

>  <smiles>  (69) 
NC1NCNCC12CNC(O)CC21OC(CO[P@@](=O)(O)O[P@@](=O)(O)OCC2OC(O)C(O)C2O)C(O)C1O

>  <submitter_email>  (69) 
nan

>  <disregarded>  (69) 


>  <LE>  (69) 
-0.420581

>  <submitter_institution>  (69) 
nan

>  <ref_mols>  (69) 
mArh-x0905_0_A,mArh-5cb5_A_0_A

>  <N_constrained_atoms>  (69) 
38.0

>  <ref_url>  (69) 
nan

>  <method>  (69) 
nan

>  <comRMSD>  (69) 
1.078609

>  <N_unconstrained_atoms>  (69) 
0.0

>  <∆∆G>  (69) 
-15.982067

>  <runtime>  (69) 
25.433825

>  <generation_date>  (69) 
nan

$$$$
mArh-5cms_R_17_R-mArh-5cb3_0_A
     RDKit          3D

 43 48  0  0  0  0  0  0  0  0999 V2000
   -1.5050   17.9940   -6.1190 P   0  0  1  0  0  0  0  0  0  0  0  0
   -0.1130   17.2660   -6.4380 O   0  0  0  0  0  0  0  0  0  0  0  0
    0.7960   16.7710   -5.4650 C   0  0  0  0  0  0  0  0  0  0  0  0
   -2.7000   17.4950   -6.8390 O   0  0  0  0  0  0  0  0  0  0  0  0
   -1.7300   17.9920   -4.5430 O   0  0  0  0  0  0  0  0  0  0  0  0
   -1.0710   19.4440   -6.4070 O   0  0  0  0  0  0  0  0  0  0  0  0
   -0.3410   19.7930   -7.7510 P   0  0  1  0  0  0  0  0  0  0  0  0
    0.9230   20.5590   -7.6520 O   0  0  0  0  0  0  0  0  0  0  0  0
   -0.1990   18.4790   -8.6550 O   0  0  0  0  0  0  0  0  0  0  0  0
   -1.5480   20.4890   -8.4510 O   0  0  0  0  0  0  0  0  0  0  0  0
    0.1510   15.5000   -4.9800 C   0  0  2  0  0  0  0  0  0  0  0  0
   -1.9490   21.6330   -7.7320 C   0  0  1  0  0  0  0  0  0  0  0  0
   -0.1600   15.6850   -3.6310 O   0  0  0  0  0  0  0  0  0  0  0  0
    0.8430   14.1190   -4.9740 C   0  0  1  0  0  0  0  0  0  0  0  0
    2.2510   14.1650   -4.7530 O   0  0  0  0  0  0  0  0  0  0  0  0
    0.2380   13.4650   -3.7130 C   0  0  1  0  0  0  0  0  0  0  0  0
   -0.8610   14.4820   -3.4470 C   0  0  1  0  0  0  0  0  0  0  0  0
   -1.6360   22.6720   -8.7000 C   0  0  0  0  0  0  0  0  0  0  0  0
   -3.4390   21.6270   -7.3700 C   0  0  1  0  0  0  0  0  0  0  0  0
   -0.2100   12.1400   -3.9780 O   0  0  0  0  0  0  0  0  0  0  0  0
   -2.6210   22.6450   -9.7840 N   0  0  0  0  0  0  0  0  0  0  0  0
   -1.6470   14.6310   -2.2570 N   0  0  0  0  0  0  0  0  0  0  0  0
   -4.0780   22.8180   -6.6500 C   0  0  1  0  0  0  0  0  0  0  0  0
   -4.3580   21.5990   -8.5500 C   0  0  2  0  0  0  0  0  0  0  0  0
   -3.9320   24.1380   -7.1880 O   0  0  0  0  0  0  0  0  0  0  0  0
   -4.0060   22.6680   -9.4510 C   0  0  2  0  0  0  0  0  0  0  0  0
   -2.8710   23.9590   -9.7030 C   0  0  1  0  0  0  0  0  0  0  0  0
   -1.3340   14.6780   -0.9220 C   0  0  0  0  0  0  0  0  0  0  0  0
   -2.9990   14.7910   -2.3780 C   0  0  0  0  0  0  0  0  0  0  0  0
   -5.5230   22.3880   -6.8020 C   0  0  1  0  0  0  0  0  0  0  0  0
   -5.6690   21.7160   -8.0390 O   0  0  0  0  0  0  0  0  0  0  0  0
   -1.6380   24.5930   -9.5330 O   0  0  0  0  0  0  0  0  0  0  0  0
   -5.9510   21.5520   -5.7420 O   0  0  0  0  0  0  0  0  0  0  0  0
   -4.6700   23.0630  -10.7760 C   0  0  1  0  0  0  0  0  0  0  0  0
   -2.5720   14.8800   -0.3170 C   0  0  0  0  0  0  0  0  0  0  0  0
   -0.1490   14.5710   -0.2970 N   0  0  0  0  0  0  0  0  0  0  0  0
   -3.5900   14.9440   -1.2320 N   0  0  0  0  0  0  0  0  0  0  0  0
   -3.9610   24.3750  -10.7460 C   0  0  0  0  0  0  0  0  0  0  0  0
   -4.2160   22.4450  -11.9490 O   0  0  0  0  0  0  0  0  0  0  0  0
   -2.6020   14.9940    1.0660 C   0  0  0  0  0  0  0  0  0  0  0  0
   -0.3200   14.6860    1.0420 C   0  0  0  0  0  0  0  0  0  0  0  0
   -3.7790   15.2290    1.7570 N   0  0  0  0  0  0  0  0  0  0  0  0
   -1.4510   14.8820    1.7430 N   0  0  0  0  0  0  0  0  0  0  0  0
  1  2  1  0
  2  3  1  0
  1  4  2  0
  1  5  1  1
  1  6  1  0
  6  7  1  0
  7  8  2  0
  7  9  1  6
  7 10  1  0
 11  3  1  1
 12 10  1  6
 11 13  1  0
 11 14  1  0
 14 15  1  1
 14 16  1  0
 13 17  1  0
 16 17  1  0
 12 18  1  0
 19 12  1  6
 16 20  1  6
 18 21  1  0
 17 22  1  1
 19 23  1  0
 19 24  1  0
 23 25  1  6
 26 21  1  6
 24 26  1  0
 21 27  1  0
 22 28  1  0
 22 29  1  0
 23 30  1  0
 24 31  1  1
 30 31  1  0
 27 32  1  6
 30 33  1  1
 26 34  1  0
 28 35  2  0
 28 36  1  0
 29 37  2  0
 35 37  1  0
 27 38  1  0
 34 38  1  0
 34 39  1  6
 35 40  1  0
 36 41  2  0
 40 42  1  0
 40 43  2  0
 41 43  1  0
M  END
>  <%Rank>  (70) 
68.316832

>  <N_hits>  (70) 
2

>  <submitter_name>  (70) 
nan

>  <original SMILES>  (70) 
nan

>  <∆G_unbound>  (70) 
7.085326

>  <∆G_bound>  (70) 
-7.809844

>  <regarded>  (70) 
mArh-5cms_R_17_R,mArh-5cb3_0_A

>  <ref_pdb>  (70) 
nan

>  <smiles>  (70) 
Nc1ncnc2c1ncn2C1OC(CO[P@@](=O)(O)O[P@@](=O)(O)OC2CN3C(O)CC(O)C3C3OC(O)C(O)C23)C(O)C1O

>  <submitter_email>  (70) 
nan

>  <disregarded>  (70) 


>  <LE>  (70) 
-0.346399

>  <submitter_institution>  (70) 
nan

>  <ref_mols>  (70) 
mArh-5cms_R_17_R,mArh-5cb3_0_A

>  <N_constrained_atoms>  (70) 
38.0

>  <ref_url>  (70) 
nan

>  <method>  (70) 
nan

>  <comRMSD>  (70) 
0.97925

>  <N_unconstrained_atoms>  (70) 
5.0

>  <∆∆G>  (70) 
-14.89517

>  <runtime>  (70) 
47.749447

>  <generation_date>  (70) 
nan

$$$$
mArh-5cms_C_2_C-mArh-5cb5_I_0_I
     RDKit          3D

 44 48  0  0  0  0  0  0  0  0999 V2000
   -1.4940   18.1700   -5.9610 P   0  0  1  0  0  0  0  0  0  0  0  0
   -0.9310   16.7640   -5.4250 O   0  0  0  0  0  0  0  0  0  0  0  0
    0.4690   16.5790   -5.2150 C   0  0  0  0  0  0  0  0  0  0  0  0
   -2.5730   18.0070   -6.8990 O   0  0  0  0  0  0  0  0  0  0  0  0
   -1.9240   18.9850   -4.6680 O   0  0  0  0  0  0  0  0  0  0  0  0
   -0.3090   19.0330   -6.5280 O   0  0  0  0  0  0  0  0  0  0  0  0
   -0.3710   19.8680   -7.8930 P   0  0  1  0  0  0  0  0  0  0  0  0
    0.6630   20.9310   -7.8590 O   0  0  0  0  0  0  0  0  0  0  0  0
    0.0320   18.7180   -8.9160 O   0  0  0  0  0  0  0  0  0  0  0  0
   -1.8530   20.3080   -8.4450 O   0  0  0  0  0  0  0  0  0  0  0  0
    0.6850   15.2880   -4.4150 C   0  0  1  0  0  0  0  0  0  0  0  0
   -2.3930   21.6590   -8.7730 C   0  0  1  0  0  0  0  0  0  0  0  0
    0.0000   15.4550   -3.1600 O   0  0  0  0  0  0  0  0  0  0  0  0
    0.1370   13.9690   -5.0140 C   0  0  1  0  0  0  0  0  0  0  0  0
    1.1520   13.0840   -5.4570 O   0  0  0  0  0  0  0  0  0  0  0  0
   -0.6140   13.3810   -3.8010 C   0  0  1  0  0  0  0  0  0  0  0  0
   -1.1870   14.6730   -3.2920 C   0  0  1  0  0  0  0  0  0  0  0  0
   -3.8000   21.8060   -9.5440 C   0  0  2  0  0  0  0  0  0  0  0  0
   -2.8790   22.0800   -7.4450 C   0  0  1  0  0  0  0  0  0  0  0  0
   -1.5250   12.3710   -4.2090 O   0  0  0  0  0  0  0  0  0  0  0  0
   -3.9670   22.1800  -10.8520 C   0  0  1  0  0  0  0  0  0  0  0  0
   -4.6630   22.7660   -8.8820 O   0  0  0  0  0  0  0  0  0  0  0  0
   -1.9850   14.8200   -2.0980 N   0  0  0  0  0  0  0  0  0  0  0  0
   -3.5800   23.4530   -7.4230 C   0  0  1  0  0  0  0  0  0  0  0  0
   -3.9140   21.1180   -7.1300 O   0  0  0  0  0  0  0  0  0  0  0  0
   -5.2110   21.9340  -11.4760 O   0  0  0  0  0  0  0  0  0  0  0  0
   -4.0680   23.9400   -8.6850 O   0  0  0  0  0  0  0  0  0  0  0  0
   -5.1960   23.6530   -9.8600 C   0  0  2  0  0  0  0  0  0  0  0  0
   -4.0490   23.7000  -10.7100 C   0  0  2  0  0  0  0  0  0  0  0  0
   -1.5790   14.7850   -0.7880 C   0  0  0  0  0  0  0  0  0  0  0  0
   -3.3430   15.0640   -2.1250 C   0  0  0  0  0  0  0  0  0  0  0  0
   -5.1080   21.8740   -7.0850 C   0  0  2  0  0  0  0  0  0  0  0  0
   -4.7500   23.0590   -6.5710 C   0  0  2  0  0  0  0  0  0  0  0  0
   -5.4820   24.9160   -9.3820 O   0  0  0  0  0  0  0  0  0  0  0  0
   -4.2440   24.4620  -11.9260 O   0  0  0  0  0  0  0  0  0  0  0  0
   -5.9800   21.2330   -6.1840 O   0  0  0  0  0  0  0  0  0  0  0  0
   -5.7610   24.0470   -6.6520 O   0  0  0  0  0  0  0  0  0  0  0  0
   -2.8820   15.0710   -0.0440 C   0  0  0  0  0  0  0  0  0  0  0  0
   -0.3750   14.5810   -0.2300 N   0  0  0  0  0  0  0  0  0  0  0  0
   -3.9030   15.2150   -0.9380 N   0  0  0  0  0  0  0  0  0  0  0  0
   -2.7980   15.1420    1.3280 C   0  0  0  0  0  0  0  0  0  0  0  0
   -0.4870   14.6650    1.1200 C   0  0  0  0  0  0  0  0  0  0  0  0
   -3.8940   15.4390    2.1080 N   0  0  0  0  0  0  0  0  0  0  0  0
   -1.5900   14.9210    1.8970 N   0  0  0  0  0  0  0  0  0  0  0  0
  1  2  1  0
  2  3  1  0
  1  4  2  0
  1  5  1  1
  1  6  1  0
  6  7  1  0
  7  8  2  0
  7  9  1  6
  7 10  1  0
 11  3  1  6
 12 10  1  1
 11 13  1  0
 11 14  1  0
 14 15  1  1
 14 16  1  0
 13 17  1  0
 16 17  1  0
 12 18  1  0
 12 19  1  0
 16 20  1  6
 18 21  1  0
 18 22  1  1
 17 23  1  1
 19 24  1  0
 19 25  1  6
 21 26  1  1
 24 27  1  6
 22 28  1  0
 21 29  1  0
 28 29  1  0
 23 30  1  0
 23 31  1  0
 25 32  1  0
 24 33  1  0
 32 33  1  0
 28 34  1  1
 29 35  1  6
 32 36  1  1
 33 37  1  6
 30 38  2  0
 30 39  1  0
 31 40  2  0
 38 40  1  0
 38 41  1  0
 39 42  2  0
 41 43  1  0
 41 44  2  0
 42 44  1  0
M  END
>  <%Rank>  (71) 
69.306931

>  <N_hits>  (71) 
2

>  <submitter_name>  (71) 
nan

>  <original SMILES>  (71) 
nan

>  <∆G_unbound>  (71) 
6.0598

>  <∆G_bound>  (71) 
-3.687987

>  <regarded>  (71) 
mArh-5cms_C_2_C,mArh-5cb5_I_0_I

>  <ref_pdb>  (71) 
nan

>  <smiles>  (71) 
Nc1ncnc2c1ncn2C1OC(CO[P@@](=O)(O)O[P@@](=O)(O)OC(C2OC(O)C(O)C2O)C2OC(O)C(O)C2O)C(O)C1O

>  <submitter_email>  (71) 
nan

>  <disregarded>  (71) 


>  <LE>  (71) 
-0.221541

>  <submitter_institution>  (71) 
nan

>  <ref_mols>  (71) 
mArh-5cms_C_2_C,mArh-5cb5_I_0_I

>  <N_constrained_atoms>  (71) 
44.0

>  <ref_url>  (71) 
nan

>  <method>  (71) 
nan

>  <comRMSD>  (71) 
1.045721

>  <N_unconstrained_atoms>  (71) 
0.0

>  <∆∆G>  (71) 
-9.747786

>  <runtime>  (71) 
68.476591

>  <generation_date>  (71) 
nan

$$$$
mArh-x0676_0_B-mArh-5mqx_0_A
     RDKit          3D

 54 59  0  0  0  0  0  0  0  0999 V2000
    5.8080    6.6630   -9.1030 C   0  0  0  0  0  0  0  0  0  0  0  0
    4.7630    7.1830  -10.0240 C   0  0  0  0  0  0  0  0  0  0  0  0
    5.0050    7.6760  -11.2040 N   0  0  0  0  0  0  0  0  0  0  0  0
    3.3140    7.1750   -9.6480 C   0  0  0  0  0  0  0  0  0  0  0  0
    2.7460    7.9950  -10.7830 C   0  0  0  0  0  0  0  0  0  0  0  0
    3.7670    8.0760  -11.7220 N   0  0  0  0  0  0  0  0  0  0  0  0
    1.5440    8.4160  -10.6700 N   0  0  0  0  0  0  0  0  0  0  0  0
    3.8760    9.1190  -12.6990 C   0  0  0  0  0  0  0  0  0  0  0  0
    0.7310    8.1380   -9.4900 C   0  0  0  0  0  0  0  0  0  0  0  0
    2.9240   10.1580  -12.6850 C   0  0  0  0  0  0  0  0  0  0  0  0
    4.9100    9.1150  -13.6550 C   0  0  0  0  0  0  0  0  0  0  0  0
    0.1890    9.4480   -8.9450 C   0  0  0  0  0  0  0  0  0  0  0  0
    2.9560   11.2120  -13.5910 C   0  0  0  0  0  0  0  0  0  0  0  0
    5.1200   10.1900  -14.7520 C   0  0  0  0  0  0  0  0  0  0  0  0
    0.8200    9.5570   -7.5740 C   0  0  0  0  0  0  0  0  0  0  0  0
    4.0470   11.2720  -14.6570 C   0  0  0  0  0  0  0  0  0  0  0  0
    0.6520   11.0300   -7.2020 C   0  0  0  0  0  0  0  0  0  0  0  0
   -0.5540   11.3440   -6.3300 C   0  0  0  0  0  0  0  0  0  0  0  0
   -0.2990   10.9520   -4.9790 O   0  0  0  0  0  0  0  0  0  0  0  0
   -0.9660   11.7780   -4.0430 C   0  0  2  0  0  0  0  0  0  0  0  0
   -0.7820   13.2890   -4.3150 C   0  0  1  0  0  0  0  0  0  0  0  0
   -0.4100   11.5290   -2.6430 C   0  0  2  0  0  0  0  0  0  0  0  0
   -1.9920   14.0740   -4.8470 C   0  0  0  0  0  0  0  0  0  0  0  0
   -1.0040   10.4430   -1.9420 O   0  0  0  0  0  0  0  0  0  0  0  0
   -0.3380   13.8790   -3.0810 O   0  0  0  0  0  0  0  0  0  0  0  0
   -0.5680   12.9170   -2.0320 C   0  0  1  0  0  0  0  0  0  0  0  0
   -1.6320   15.4240   -5.0960 O   0  0  0  0  0  0  0  0  0  0  0  0
   -1.7270   13.3570   -1.2930 N   0  0  0  0  0  0  0  0  0  0  0  0
   -2.7670   16.5160   -4.9470 P   0  0  2  0  0  0  0  0  0  0  0  0
   -1.5480   13.8260   -0.0700 C   0  0  0  0  0  0  0  0  0  0  0  0
   -3.0710   13.4290   -1.5790 C   0  0  0  0  0  0  0  0  0  0  0  0
   -3.4820   16.0220   -3.6130 O   0  0  0  0  0  0  0  0  0  0  0  0
   -3.6430   16.2600   -6.2540 O   0  0  0  0  0  0  0  0  0  0  0  0
   -2.2220   18.0820   -4.9280 O   0  0  0  0  0  0  0  0  0  0  0  0
   -2.7910   14.2120    0.3750 C   0  0  0  0  0  0  0  0  0  0  0  0
   -0.3600   13.8760    0.5140 N   0  0  0  0  0  0  0  0  0  0  0  0
   -3.7540   13.9520   -0.5660 N   0  0  0  0  0  0  0  0  0  0  0  0
   -2.4870   19.5570   -5.6980 P   0  0  2  0  0  0  0  0  0  0  0  0
   -2.8170   14.7700    1.6300 C   0  0  0  0  0  0  0  0  0  0  0  0
   -0.5050   14.3960    1.7050 C   0  0  0  0  0  0  0  0  0  0  0  0
   -1.3120   20.1040   -6.3070 O   0  0  0  0  0  0  0  0  0  0  0  0
   -2.9570   20.5760   -4.5470 O   0  0  0  0  0  0  0  0  0  0  0  0
   -3.8110   19.4970   -6.7370 O   0  0  0  0  0  0  0  0  0  0  0  0
   -3.9470   15.2630    2.2560 N   0  0  0  0  0  0  0  0  0  0  0  0
   -1.6460   14.8350    2.2630 N   0  0  0  0  0  0  0  0  0  0  0  0
   -5.0740   20.3150   -6.9200 C   0  0  0  0  0  0  0  0  0  0  0  0
   -6.1350   19.3780   -7.7180 C   0  0  2  0  0  0  0  0  0  0  0  0
   -7.4230   19.5380   -8.6120 C   0  0  2  0  0  0  0  0  0  0  0  0
   -6.0810   17.9820   -7.2910 O   0  0  0  0  0  0  0  0  0  0  0  0
   -8.2740   20.6190   -8.4570 O   0  0  0  0  0  0  0  0  0  0  0  0
   -7.0780   17.1860   -7.9650 C   0  0  2  0  0  0  0  0  0  0  0  0
   -8.1140   18.1640   -8.5880 C   0  0  2  0  0  0  0  0  0  0  0  0
   -7.6640   16.2160   -7.0960 O   0  0  0  0  0  0  0  0  0  0  0  0
   -8.4800   17.7550   -9.9000 O   0  0  0  0  0  0  0  0  0  0  0  0
  1  2  1  0
  2  3  2  0
  2  4  1  0
  4  5  1  0
  3  6  1  0
  5  6  1  0
  5  7  2  3
  6  8  1  0
  7  9  1  0
  8 10  2  0
  8 11  1  0
  9 12  1  0
 10 13  1  0
 11 14  2  0
 12 15  1  0
 13 16  2  0
 14 16  1  0
 15 17  1  0
 17 18  1  0
 18 19  1  0
 20 19  1  6
 20 21  1  0
 20 22  1  0
 21 23  1  1
 22 24  1  1
 21 25  1  0
 22 26  1  0
 25 26  1  0
 23 27  1  0
 26 28  1  6
 27 29  1  0
 28 30  1  0
 28 31  1  0
 29 32  2  0
 29 33  1  6
 29 34  1  0
 30 35  2  0
 30 36  1  0
 31 37  2  0
 35 37  1  0
 34 38  1  0
 35 39  1  0
 36 40  2  0
 38 41  2  0
 38 42  1  1
 38 43  1  0
 39 44  1  0
 39 45  2  0
 40 45  1  0
 43 46  1  0
 47 46  1  1
 47 48  1  0
 47 49  1  0
 48 50  1  1
 49 51  1  0
 48 52  1  0
 51 52  1  0
 51 53  1  1
 52 54  1  6
M  END
>  <%Rank>  (72) 
70.29703

>  <N_hits>  (72) 
2

>  <submitter_name>  (72) 
nan

>  <original SMILES>  (72) 
nan

>  <∆G_unbound>  (72) 
6.750573

>  <∆G_bound>  (72) 
-5.510362

>  <regarded>  (72) 
mArh-x0676_0_B,mArh-5mqx_0_A

>  <ref_pdb>  (72) 
nan

>  <smiles>  (72) 
CC1=NN(c2ccccc2)C(=NCCCCCOC2C(CO[P@](=O)(O)O[P@@](=O)(O)OCC3OC(O)C(O)C3O)OC(n3cnc4c(N)ncnc43)C2O)C1

>  <submitter_email>  (72) 
nan

>  <disregarded>  (72) 


>  <LE>  (72) 
-0.227054

>  <submitter_institution>  (72) 
nan

>  <ref_mols>  (72) 
mArh-x0676_0_B,mArh-5mqx_0_A

>  <N_constrained_atoms>  (72) 
49.0

>  <ref_url>  (72) 
nan

>  <method>  (72) 
nan

>  <comRMSD>  (72) 
1.051917

>  <N_unconstrained_atoms>  (72) 
5.0

>  <∆∆G>  (72) 
-12.260936

>  <runtime>  (72) 
60.676527

>  <generation_date>  (72) 
nan

$$$$
mArh-5cms_K_10_K-mArh-5cms_L_11_L
     RDKit          3D

 38 41  0  0  0  0  0  0  0  0999 V2000
   -1.5910   18.2780   -5.9730 P   0  0  1  0  0  0  0  0  0  0  0  0
   -0.9130   17.3590   -4.8830 O   0  0  0  0  0  0  0  0  0  0  0  0
    0.2560   16.6200   -5.2180 C   0  0  0  0  0  0  0  0  0  0  0  0
   -2.4890   17.5490   -6.9130 O   0  0  0  0  0  0  0  0  0  0  0  0
   -2.3670   19.3110   -5.0350 O   0  0  0  0  0  0  0  0  0  0  0  0
   -0.3570   19.0570   -6.5290 O   0  0  0  0  0  0  0  0  0  0  0  0
   -0.2320   19.7960   -7.8840 P   0  0  1  0  0  0  0  0  0  0  0  0
    0.7860   20.8800   -7.9070 O   0  0  0  0  0  0  0  0  0  0  0  0
    0.0740   18.6220   -8.9140 O   0  0  0  0  0  0  0  0  0  0  0  0
   -1.6880   20.3010   -8.2730 O   0  0  0  0  0  0  0  0  0  0  0  0
   -0.1100   15.2780   -4.6450 C   0  0  2  0  0  0  0  0  0  0  0  0
   -1.7680   21.6860   -8.5010 C   0  0  0  0  0  0  0  0  0  0  0  0
    0.0910   15.3770   -3.2390 O   0  0  0  0  0  0  0  0  0  0  0  0
    0.4310   13.8960   -5.0210 C   0  0  0  0  0  0  0  0  0  0  0  0
    1.8060   13.6520   -4.8760 O   0  0  0  0  0  0  0  0  0  0  0  0
    0.1320   13.4750   -6.3420 O   0  0  0  0  0  0  0  0  0  0  0  0
   -0.3750   13.1220   -3.9640 C   0  0  1  0  0  0  0  0  0  0  0  0
   -0.4140   14.1250   -2.7840 C   0  0  2  0  0  0  0  0  0  0  0  0
   -3.1870   22.2290   -8.5910 C   0  0  1  0  0  0  0  0  0  0  0  0
   -1.6360   12.6340   -4.4520 O   0  0  0  0  0  0  0  0  0  0  0  0
   -3.2560   23.7100   -8.8640 C   0  0  1  0  0  0  0  0  0  0  0  0
   -4.1830   21.6720   -9.5110 N   0  0  0  0  0  0  0  0  0  0  0  0
   -1.6000   14.4550   -2.0120 N   0  0  0  0  0  0  0  0  0  0  0  0
   -1.9630   24.2570   -8.8820 O   0  0  0  0  0  0  0  0  0  0  0  0
   -5.4170   21.9340   -8.8030 O   0  0  0  0  0  0  0  0  0  0  0  0
   -4.3090   22.4880  -10.7110 C   0  0  2  0  0  0  0  0  0  0  0  0
   -4.1750   23.8910  -10.1240 C   0  0  2  0  0  0  0  0  0  0  0  0
   -1.5700   14.5560   -0.6720 C   0  0  0  0  0  0  0  0  0  0  0  0
   -2.8860   14.7240   -2.4240 C   0  0  0  0  0  0  0  0  0  0  0  0
   -5.5910   22.3680  -11.2810 O   0  0  0  0  0  0  0  0  0  0  0  0
   -3.7570   24.8830  -11.1010 O   0  0  0  0  0  0  0  0  0  0  0  0
   -2.8540   14.8910   -0.2800 C   0  0  0  0  0  0  0  0  0  0  0  0
   -0.4830   14.3620    0.0780 N   0  0  0  0  0  0  0  0  0  0  0  0
   -3.6810   14.9960   -1.3890 N   0  0  0  0  0  0  0  0  0  0  0  0
   -3.0440   15.0500    1.1030 C   0  0  0  0  0  0  0  0  0  0  0  0
   -0.7740   14.5250    1.3720 C   0  0  0  0  0  0  0  0  0  0  0  0
   -4.2610   15.3980    1.6780 N   0  0  0  0  0  0  0  0  0  0  0  0
   -1.9700   14.8470    1.9160 N   0  0  0  0  0  0  0  0  0  0  0  0
  1  2  1  0
  2  3  1  0
  1  4  2  0
  1  5  1  1
  1  6  1  0
  6  7  1  0
  7  8  2  0
  7  9  1  6
  7 10  1  0
 11  3  1  6
 10 12  1  0
 11 13  1  0
 11 14  1  0
 14 15  1  0
 14 16  1  0
 14 17  1  0
 13 18  1  0
 17 18  1  0
 19 12  1  6
 17 20  1  6
 19 21  1  0
 19 22  1  0
 18 23  1  6
 21 24  1  6
 22 25  1  0
 22 26  1  0
 21 27  1  0
 26 27  1  0
 23 28  1  0
 23 29  1  0
 26 30  1  1
 27 31  1  6
 28 32  2  0
 28 33  1  0
 29 34  2  0
 32 34  1  0
 32 35  1  0
 33 36  2  0
 35 37  1  0
 35 38  2  0
 36 38  1  0
M  END
>  <%Rank>  (73) 
71.287129

>  <N_hits>  (73) 
2

>  <submitter_name>  (73) 
nan

>  <original SMILES>  (73) 
nan

>  <∆G_unbound>  (73) 
6.082103

>  <∆G_bound>  (73) 
-10.196938

>  <regarded>  (73) 
mArh-5cms_K_10_K,mArh-5cms_L_11_L

>  <ref_pdb>  (73) 
nan

>  <smiles>  (73) 
Nc1ncnc2c1ncn2C1OC(CO[P@@](=O)(O)O[P@@](=O)(O)OCC2C(O)C(O)C(O)N2O)C(O)(O)C1O

>  <submitter_email>  (73) 
nan

>  <disregarded>  (73) 


>  <LE>  (73) 
-0.428396

>  <submitter_institution>  (73) 
nan

>  <ref_mols>  (73) 
mArh-5cms_K_10_K,mArh-5cms_L_11_L

>  <N_constrained_atoms>  (73) 
38.0

>  <ref_url>  (73) 
nan

>  <method>  (73) 
nan

>  <comRMSD>  (73) 
1.128051

>  <N_unconstrained_atoms>  (73) 
0.0

>  <∆∆G>  (73) 
-16.279041

>  <runtime>  (73) 
55.033168

>  <generation_date>  (73) 
nan

$$$$
mArh-x0631_0_A-mArh-x0159_0_B
     RDKit          3D

 27 30  0  0  0  0  0  0  0  0999 V2000
   -2.7050    8.8380   -7.4150 C   0  0  0  0  0  0  0  0  0  0  0  0
   -1.7070    8.1760   -6.4780 C   0  0  0  0  0  0  0  0  0  0  0  0
   -0.4710    9.0580   -6.3380 C   0  0  0  0  0  0  0  0  0  0  0  0
   -0.3750    9.9380   -7.5240 N   0  0  0  0  0  0  0  0  0  0  0  0
    0.3470   11.1560   -7.2050 N   0  0  0  0  0  0  0  0  0  0  0  0
    0.4720    9.3520   -8.4470 N   0  0  0  0  0  0  0  0  0  0  0  0
    1.0180   11.4820   -8.3460 N   0  0  0  0  0  0  0  0  0  0  0  0
    1.0730   10.3880   -9.0480 C   0  0  0  0  0  0  0  0  0  0  0  0
    1.0790    8.1090   -8.1630 C   0  0  0  0  0  0  0  0  0  0  0  0
    1.6870   10.2400  -10.2590 N   0  0  0  0  0  0  0  0  0  0  0  0
    1.8620    7.6240   -9.3510 C   0  0  0  0  0  0  0  0  0  0  0  0
    1.7210   11.2360  -11.3380 C   0  0  0  0  0  0  0  0  0  0  0  0
    1.2640    6.3200   -9.8080 C   0  0  0  0  0  0  0  0  0  0  0  0
    2.2980   10.6810  -12.7090 C   0  0  2  0  0  0  0  0  0  0  0  0
    1.6270    5.3090   -8.7840 C   0  0  0  0  0  0  0  0  0  0  0  0
    3.6230    9.9860  -12.6330 N   0  0  0  0  0  0  0  0  0  0  0  0
    2.5360   11.7320  -13.7400 C   0  0  0  0  0  0  0  0  0  0  0  0
    1.4880    9.6140  -13.1970 N   0  0  0  0  0  0  0  0  0  0  0  0
    2.6350    4.4080   -9.0830 C   0  0  0  0  0  0  0  0  0  0  0  0
    0.9840    5.2650   -7.5410 C   0  0  0  0  0  0  0  0  0  0  0  0
    3.6110   11.4210  -14.4790 C   0  0  0  0  0  0  0  0  0  0  0  0
    4.1770   10.1250  -14.0070 C   0  0  0  0  0  0  0  0  0  0  0  0
    1.8710    8.5180  -12.3420 C   0  0  0  0  0  0  0  0  0  0  0  0
    3.3200    8.5920  -12.2810 N   0  0  0  0  0  0  0  0  0  0  0  0
    3.0180    3.4640   -8.1610 C   0  0  0  0  0  0  0  0  0  0  0  0
    1.3690    4.3150   -6.6170 C   0  0  0  0  0  0  0  0  0  0  0  0
    2.3920    3.4180   -6.9380 C   0  0  0  0  0  0  0  0  0  0  0  0
  1  2  1  0
  2  3  1  0
  3  4  1  0
  4  5  1  0
  4  6  1  0
  5  7  1  0
  6  8  1  0
  7  8  2  0
  6  9  1  0
  8 10  1  0
  9 11  1  0
 10 12  1  0
 11 13  1  0
 14 12  1  1
 13 15  1  0
 14 16  1  0
 14 17  1  0
 14 18  1  0
 15 19  2  0
 15 20  1  0
 17 21  2  0
 16 22  1  0
 21 22  1  0
 18 23  1  0
 16 24  1  0
 23 24  1  0
 19 25  1  0
 20 26  2  0
 25 27  2  0
 26 27  1  0
M  END
>  <%Rank>  (74) 
72.277228

>  <N_hits>  (74) 
2

>  <submitter_name>  (74) 
nan

>  <original SMILES>  (74) 
nan

>  <∆G_unbound>  (74) 
1.406361

>  <∆G_bound>  (74) 
-2.882366

>  <regarded>  (74) 
mArh-x0631_0_A,mArh-x0159_0_B

>  <ref_pdb>  (74) 
nan

>  <smiles>  (74) 
CCCN1NN=C(NCC23C=CCN2NCN3)N1CCCc1ccccc1

>  <submitter_email>  (74) 
nan

>  <disregarded>  (74) 


>  <LE>  (74) 
-0.158842

>  <submitter_institution>  (74) 
nan

>  <ref_mols>  (74) 
mArh-x0631_0_A,mArh-x0159_0_B

>  <N_constrained_atoms>  (74) 
26.0

>  <ref_url>  (74) 
nan

>  <method>  (74) 
nan

>  <comRMSD>  (74) 
0.856

>  <N_unconstrained_atoms>  (74) 
1.0

>  <∆∆G>  (74) 
-4.288728

>  <runtime>  (74) 
37.285206

>  <generation_date>  (74) 
nan

$$$$
mArh-x0724_0_A-mArh-6ywk_E_2_E
     RDKit          3D

 34 36  0  0  0  0  0  0  0  0999 V2000
   -8.1960   13.7020    4.3720 N   0  0  0  0  0  0  0  0  0  0  0  0
   -8.6300   13.8830    5.7520 C   0  0  0  0  0  0  0  0  0  0  0  0
   -8.3570   14.9380    3.6170 C   0  0  0  0  0  0  0  0  0  0  0  0
   -7.6630   14.8250    2.2990 C   0  0  0  0  0  0  0  0  0  0  0  0
   -6.3080   14.8890    2.0200 C   0  0  0  0  0  0  0  0  0  0  0  0
   -8.2480   14.6350    1.0340 C   0  0  0  0  0  0  0  0  0  0  0  0
   -7.3520   14.5940    0.0440 N   0  0  0  0  0  0  0  0  0  0  0  0
   -6.1470   14.7610    0.6560 N   0  0  0  0  0  0  0  0  0  0  0  0
   -4.9320   14.7990   -0.0930 C   0  0  0  0  0  0  0  0  0  0  0  0
   -3.6850   14.8340    0.5430 C   0  0  0  0  0  0  0  0  0  0  0  0
   -4.9880   14.8090   -1.4940 C   0  0  0  0  0  0  0  0  0  0  0  0
   -2.5100   14.8740   -0.2220 C   0  0  0  0  0  0  0  0  0  0  0  0
   -3.8140   14.8480   -2.2530 C   0  0  0  0  0  0  0  0  0  0  0  0
   -2.5610   14.8780   -1.6270 C   0  0  0  0  0  0  0  0  0  0  0  0
   -1.2820   14.9040   -2.4530 C   0  0  0  0  0  0  0  0  0  0  0  0
   -0.8190   16.3040   -2.8290 C   0  0  0  0  0  0  0  0  0  0  0  0
    0.2680   16.4080   -3.9100 C   0  0  0  0  0  0  0  0  0  0  0  0
    0.5180   17.8880   -4.2550 C   0  0  0  0  0  0  0  0  0  0  0  0
    1.1040   18.0970   -5.6520 C   0  0  0  0  0  0  0  0  0  0  0  0
    0.0530   18.4260   -6.6220 N   0  0  0  0  0  0  0  0  0  0  0  0
    0.0590   19.7520   -7.3650 S   0  0  1  0  0  0  0  0  0  0  0  0
    1.1490   20.7060   -7.5080 O   0  0  0  0  0  0  0  0  0  0  0  0
   -0.0180   18.8700   -8.7140 O   0  0  0  0  0  0  0  0  0  0  0  0
   -1.5470   20.5550   -7.2460 C   0  0  0  0  0  0  0  0  0  0  0  0
   -1.7570   21.5600   -8.3520 C   0  0  0  0  0  0  0  0  0  0  0  0
   -2.8780   22.5500   -8.2680 N   0  0  0  0  0  0  0  0  0  0  0  0
   -3.0240   23.2070   -6.9780 C   0  0  0  0  0  0  0  0  0  0  0  0
   -4.1750   22.0060   -8.6570 C   0  0  0  0  0  0  0  0  0  0  0  0
   -4.3010   24.0080   -6.6760 C   0  0  0  0  0  0  0  0  0  0  0  0
   -5.2260   21.9630   -7.5240 C   0  0  0  0  0  0  0  0  0  0  0  0
   -5.5450   23.2960   -7.0250 N   0  0  0  0  0  0  0  0  0  0  0  0
   -6.2140   24.1270   -8.0490 C   0  0  0  0  0  0  0  0  0  0  0  0
   -6.4690   23.4630   -9.3980 C   0  0  0  0  0  0  0  0  0  0  0  0
   -7.4350   22.4230   -9.2750 O   0  0  0  0  0  0  0  0  0  0  0  0
  1  2  1  0
  1  3  1  0
  3  4  1  0
  4  5  2  0
  4  6  1  0
  6  7  2  0
  5  8  1  0
  7  8  1  0
  8  9  1  0
  9 10  2  0
  9 11  1  0
 10 12  1  0
 11 13  2  0
 12 14  2  0
 13 14  1  0
 14 15  1  0
 15 16  1  0
 16 17  1  0
 17 18  1  0
 18 19  1  0
 19 20  1  0
 20 21  2  0
 21 22  2  0
 21 23  1  6
 21 24  1  0
 24 25  1  0
 25 26  1  0
 26 27  1  0
 26 28  1  0
 27 29  1  0
 28 30  1  0
 29 31  1  0
 30 31  1  0
 31 32  1  0
 32 33  1  0
 33 34  1  0
M  END
>  <%Rank>  (75) 
73.267327

>  <N_hits>  (75) 
2

>  <submitter_name>  (75) 
nan

>  <original SMILES>  (75) 
nan

>  <∆G_unbound>  (75) 
0.255919

>  <∆G_bound>  (75) 
-16.590243

>  <regarded>  (75) 
mArh-x0724_0_A,mArh-6ywk_E_2_E

>  <ref_pdb>  (75) 
nan

>  <smiles>  (75) 
CNCc1cnn(-c2ccc(CCCCCN=S(=O)(O)CCN3CCN(CCO)CC3)cc2)c1

>  <submitter_email>  (75) 
nan

>  <disregarded>  (75) 


>  <LE>  (75) 
-0.495475

>  <submitter_institution>  (75) 
nan

>  <ref_mols>  (75) 
mArh-x0724_0_A,mArh-6ywk_E_2_E

>  <N_constrained_atoms>  (75) 
29.0

>  <ref_url>  (75) 
nan

>  <method>  (75) 
nan

>  <comRMSD>  (75) 
1.002817

>  <N_unconstrained_atoms>  (75) 
5.0

>  <∆∆G>  (75) 
-16.846162

>  <runtime>  (75) 
108.714995

>  <generation_date>  (75) 
nan

$$$$
mArh-mac-242_0_A-mArh-x0910_0_A
     RDKit          3D

 16 18  0  0  0  0  0  0  0  0999 V2000
   -3.8530   14.6780    2.0860 N   0  0  0  0  0  0  0  0  0  0  0  0
   -2.7010   14.5290    1.3360 C   0  0  0  0  0  0  0  0  0  0  0  0
   -1.5750   14.4160    2.0310 N   0  0  0  0  0  0  0  0  0  0  0  0
   -2.7630   14.5100   -0.0310 C   0  0  0  0  0  0  0  0  0  0  0  0
   -1.5240   14.3880   -0.6890 C   0  0  0  0  0  0  0  0  0  0  0  0
   -0.3920   14.2840    1.4280 C   0  0  0  0  0  0  0  0  0  0  0  0
   -4.1110   14.6070   -0.7740 C   0  0  2  0  0  0  0  0  0  0  0  0
   -0.1920   14.2560    0.0660 C   0  0  0  0  0  0  0  0  0  0  0  0
   -1.4850   14.3900   -2.1290 C   0  0  0  0  0  0  0  0  0  0  0  0
   -4.1070   14.0760   -2.2130 C   0  0  0  0  0  0  0  0  0  0  0  0
   -4.7690   15.9330   -0.7990 N   0  0  0  0  0  0  0  0  0  0  0  0
   -5.1230   13.8180    0.0040 N   0  0  0  0  0  0  0  0  0  0  0  0
   -2.7780   14.2510   -2.9260 C   0  0  0  0  0  0  0  0  0  0  0  0
   -6.1760   14.6900    0.4090 C   0  0  1  0  0  0  0  0  0  0  0  0
   -6.1900   15.6230   -0.6710 N   0  0  0  0  0  0  0  0  0  0  0  0
   -7.4230   13.9960    0.4660 N   0  0  0  0  0  0  0  0  0  0  0  0
  1  2  1  0
  2  3  2  0
  2  4  1  0
  4  5  2  0
  3  6  1  0
  4  7  1  0
  5  8  1  0
  6  8  2  0
  5  9  1  0
  7 10  1  6
  7 11  1  0
  7 12  1  0
  9 13  2  0
 10 13  1  0
 12 14  1  0
 11 15  1  0
 14 15  1  0
 14 16  1  6
M  END
>  <%Rank>  (76) 
74.257426

>  <N_hits>  (76) 
2

>  <submitter_name>  (76) 
nan

>  <original SMILES>  (76) 
nan

>  <∆G_unbound>  (76) 
0.580358

>  <∆G_bound>  (76) 
-4.929595

>  <regarded>  (76) 
mArh-mac-242_0_A,mArh-x0910_0_A

>  <ref_pdb>  (76) 
nan

>  <smiles>  (76) 
Nc1nccc2c1C1(CC=C2)NNC(N)N1

>  <submitter_email>  (76) 
nan

>  <disregarded>  (76) 


>  <LE>  (76) 
-0.344372

>  <submitter_institution>  (76) 
nan

>  <ref_mols>  (76) 
mArh-mac-242_0_A,mArh-x0910_0_A

>  <N_constrained_atoms>  (76) 
16.0

>  <ref_url>  (76) 
nan

>  <method>  (76) 
nan

>  <comRMSD>  (76) 
0.793047

>  <N_unconstrained_atoms>  (76) 
0.0

>  <∆∆G>  (76) 
-5.509953

>  <runtime>  (76) 
15.989836

>  <generation_date>  (76) 
nan

$$$$
mArh-x0855_0_A-mArh-5cms_J_9_J
     RDKit          3D

 45 49  0  0  0  0  0  0  0  0999 V2000
    2.2670   12.6260   -2.9380 O   0  0  0  0  0  0  0  0  0  0  0  0
    1.2580   11.9690   -3.5380 C   0  0  0  0  0  0  0  0  0  0  0  0
    0.7340   12.5880   -4.8060 C   0  0  1  0  0  0  0  0  0  0  0  0
    0.8110   10.9610   -3.0130 O   0  0  0  0  0  0  0  0  0  0  0  0
   -0.2550   11.6320   -5.3140 N   0  0  0  0  0  0  0  0  0  0  0  0
    0.0720   13.8170   -4.2660 C   0  0  1  0  0  0  0  0  0  0  0  0
   -0.1450   10.7600   -6.3540 C   0  0  0  0  0  0  0  0  0  0  0  0
   -1.4600   11.5550   -4.6950 N   0  0  0  0  0  0  0  0  0  0  0  0
    0.4310   15.3180   -4.3190 C   0  0  1  0  0  0  0  0  0  0  0  0
   -1.3870   13.7390   -4.0110 C   0  0  2  0  0  0  0  0  0  0  0  0
   -0.0240   16.2370   -5.4240 C   0  0  0  0  0  0  0  0  0  0  0  0
   -2.1720   14.2280   -5.0840 O   0  0  0  0  0  0  0  0  0  0  0  0
   -1.3420   10.0880   -6.3920 C   0  0  0  0  0  0  0  0  0  0  0  0
   -2.1170   10.6120   -5.3590 C   0  0  0  0  0  0  0  0  0  0  0  0
   -0.3540   15.7310   -3.1940 O   0  0  0  0  0  0  0  0  0  0  0  0
   -1.1280   14.5720   -2.7910 C   0  0  1  0  0  0  0  0  0  0  0  0
   -1.8810    8.7430   -7.5570 Br  0  0  0  0  0  0  0  0  0  0  0  0
   -0.4450   17.5170   -4.9990 O   0  0  0  0  0  0  0  0  0  0  0  0
   -2.1120   14.8400   -1.8380 N   0  0  0  0  0  0  0  0  0  0  0  0
   -1.5940   18.2340   -5.8700 P   0  0  1  0  0  0  0  0  0  0  0  0
   -1.8660   14.7770   -0.5320 C   0  0  0  0  0  0  0  0  0  0  0  0
   -3.4190   15.1940   -2.0320 C   0  0  0  0  0  0  0  0  0  0  0  0
   -2.4020   17.3840   -6.7860 O   0  0  0  0  0  0  0  0  0  0  0  0
   -2.4140   19.0100   -4.7750 O   0  0  0  0  0  0  0  0  0  0  0  0
   -0.9730   19.5250   -6.4950 O   0  0  0  0  0  0  0  0  0  0  0  0
   -3.0560   15.1110    0.0600 C   0  0  0  0  0  0  0  0  0  0  0  0
   -0.6900   14.4590    0.0330 N   0  0  0  0  0  0  0  0  0  0  0  0
   -4.0310   15.3680   -0.8830 N   0  0  0  0  0  0  0  0  0  0  0  0
   -0.0850   19.4840   -7.7560 P   0  0  1  0  0  0  0  0  0  0  0  0
   -3.0450   15.1270    1.4410 C   0  0  0  0  0  0  0  0  0  0  0  0
   -0.7960   14.4930    1.3610 C   0  0  0  0  0  0  0  0  0  0  0  0
    0.9800   18.4980   -7.6180 O   0  0  0  0  0  0  0  0  0  0  0  0
   -1.0980   19.2430   -8.9200 O   0  0  0  0  0  0  0  0  0  0  0  0
    0.3050   21.0010   -7.9180 O   0  0  0  0  0  0  0  0  0  0  0  0
   -4.1610   15.4690    2.1790 N   0  0  0  0  0  0  0  0  0  0  0  0
   -1.8920   14.8000    2.0770 N   0  0  0  0  0  0  0  0  0  0  0  0
   -0.6450   21.8630   -7.3600 C   0  0  0  0  0  0  0  0  0  0  0  0
   -1.7200   22.1410   -8.3480 C   0  0  2  0  0  0  0  0  0  0  0  0
   -2.4970   23.4080   -8.1010 C   0  0  1  0  0  0  0  0  0  0  0  0
   -2.6790   21.1580   -8.6380 O   0  0  0  0  0  0  0  0  0  0  0  0
   -1.8540   24.5370   -8.4390 O   0  0  0  0  0  0  0  0  0  0  0  0
   -3.6610   21.8670   -9.4070 C   0  0  2  0  0  0  0  0  0  0  0  0
   -3.7430   23.2750   -8.9360 C   0  0  2  0  0  0  0  0  0  0  0  0
   -4.8790   21.3800   -9.0250 O   0  0  0  0  0  0  0  0  0  0  0  0
   -4.0160   24.2260   -9.9480 O   0  0  0  0  0  0  0  0  0  0  0  0
  1  2  1  0
  3  2  1  1
  2  4  2  0
  3  5  1  0
  6  3  1  6
  5  7  1  0
  5  8  1  0
  6  9  1  0
  6 10  1  0
  9 11  1  6
 10 12  1  6
  7 13  2  0
  8 14  2  0
 13 14  1  0
  9 15  1  0
 10 16  1  0
 15 16  1  0
 13 17  1  0
 11 18  1  0
 16 19  1  6
 18 20  1  0
 19 21  1  0
 19 22  1  0
 20 23  2  0
 20 24  1  1
 20 25  1  0
 21 26  2  0
 21 27  1  0
 22 28  2  0
 26 28  1  0
 25 29  1  0
 26 30  1  0
 27 31  2  0
 29 32  2  0
 29 33  1  6
 29 34  1  0
 30 35  1  0
 30 36  2  0
 31 36  1  0
 34 37  1  0
 38 37  1  1
 38 39  1  0
 38 40  1  0
 39 41  1  6
 40 42  1  0
 39 43  1  0
 42 43  1  0
 42 44  1  1
 43 45  1  6
M  END
>  <%Rank>  (77) 
75.247525

>  <N_hits>  (77) 
2

>  <submitter_name>  (77) 
nan

>  <original SMILES>  (77) 
nan

>  <∆G_unbound>  (77) 
10.116838

>  <∆G_bound>  (77) 
-3.337133

>  <regarded>  (77) 
mArh-x0855_0_A,mArh-5cms_J_9_J

>  <ref_pdb>  (77) 
nan

>  <smiles>  (77) 
Nc1ncnc2c1ncn2C1OC(CO[P@@](=O)(O)O[P@@](=O)(O)OCC2OC(O)C(O)C2O)C(C(C(=O)O)n2cc(Br)cn2)C1O

>  <submitter_email>  (77) 
nan

>  <disregarded>  (77) 


>  <LE>  (77) 
-0.298977

>  <submitter_institution>  (77) 
nan

>  <ref_mols>  (77) 
mArh-x0855_0_A,mArh-5cms_J_9_J

>  <N_constrained_atoms>  (77) 
45.0

>  <ref_url>  (77) 
nan

>  <method>  (77) 
nan

>  <comRMSD>  (77) 
1.144331

>  <N_unconstrained_atoms>  (77) 
0.0

>  <∆∆G>  (77) 
-13.45397

>  <runtime>  (77) 
45.167835

>  <generation_date>  (77) 
nan

$$$$
mArh-5cms_K_10_K-mArh-4j4z_0_A
     RDKit          3D

 46 50  0  0  0  0  0  0  0  0999 V2000
   -1.6110   18.5040   -6.2780 P   0  0  1  0  0  0  0  0  0  0  0  0
   -0.9520   17.2100   -5.2350 C   0  0  1  0  0  0  0  0  0  0  0  0
    0.5120   16.7030   -5.2610 C   0  0  0  0  0  0  0  0  0  0  0  0
   -2.5020   18.0490   -7.3470 O   0  0  0  0  0  0  0  0  0  0  0  0
   -2.4810   19.3630   -5.2360 O   0  0  0  0  0  0  0  0  0  0  0  0
   -0.5770   19.6460   -6.5570 O   0  0  0  0  0  0  0  0  0  0  0  0
    0.0030   20.2910   -7.8500 P   0  0  1  0  0  0  0  0  0  0  0  0
   -1.0370   17.9660   -4.0730 O   0  0  0  0  0  0  0  0  0  0  0  0
   -1.9870   16.0620   -5.1580 C   0  0  0  0  0  0  0  0  0  0  0  0
    1.3260   20.9320   -7.6360 O   0  0  0  0  0  0  0  0  0  0  0  0
   -0.0130   19.0040   -8.8460 O   0  0  0  0  0  0  0  0  0  0  0  0
   -0.9970   21.4810   -8.3410 O   0  0  0  0  0  0  0  0  0  0  0  0
    0.8620   15.4370   -4.4320 C   0  0  1  0  0  0  0  0  0  0  0  0
   -2.1880   21.0590   -8.8620 C   0  0  0  0  0  0  0  0  0  0  0  0
    0.2240   15.4870   -3.1450 O   0  0  0  0  0  0  0  0  0  0  0  0
    0.4320   14.0670   -5.0110 C   0  0  1  0  0  0  0  0  0  0  0  0
    1.3900   13.0200   -4.8520 O   0  0  0  0  0  0  0  0  0  0  0  0
   -0.9230   13.7550   -4.3110 C   0  0  2  0  0  0  0  0  0  0  0  0
   -1.0890   14.9610   -3.3820 C   0  0  1  0  0  0  0  0  0  0  0  0
   -3.3200   21.9580   -9.4130 C   0  0  1  0  0  0  0  0  0  0  0  0
   -3.4020   23.4490   -9.1740 C   0  0  1  0  0  0  0  0  0  0  0  0
   -3.4720   21.7730  -10.8200 O   0  0  0  0  0  0  0  0  0  0  0  0
   -1.9790   14.9680   -2.2200 N   0  0  0  0  0  0  0  0  0  0  0  0
   -1.1460   12.4850   -3.6410 N   0  0  0  0  0  0  0  0  0  0  0  0
   -2.1190   24.0420   -9.0430 O   0  0  0  0  0  0  0  0  0  0  0  0
   -4.4280   22.7240  -11.2900 C   0  0  2  0  0  0  0  0  0  0  0  0
   -4.2160   23.9600  -10.4140 C   0  0  2  0  0  0  0  0  0  0  0  0
   -1.6820   14.8430   -0.8660 C   0  0  0  0  0  0  0  0  0  0  0  0
   -3.3380   15.1390   -2.3080 C   0  0  0  0  0  0  0  0  0  0  0  0
   -2.5820   12.2400   -3.4170 C   0  0  0  0  0  0  0  0  0  0  0  0
   -0.5080   11.3360   -4.2810 C   0  0  0  0  0  0  0  0  0  0  0  0
   -5.7450   22.2180  -11.2160 O   0  0  0  0  0  0  0  0  0  0  0  0
   -3.6910   25.0350  -11.1840 O   0  0  0  0  0  0  0  0  0  0  0  0
   -2.9220   14.9800   -0.2390 C   0  0  0  0  0  0  0  0  0  0  0  0
   -0.5020   14.6540   -0.2420 N   0  0  0  0  0  0  0  0  0  0  0  0
   -3.9310   15.1520   -1.1440 N   0  0  0  0  0  0  0  0  0  0  0  0
   -3.1940   11.3320   -4.4880 C   0  0  0  0  0  0  0  0  0  0  0  0
   -1.2430   10.0330   -3.9370 C   0  0  0  0  0  0  0  0  0  0  0  0
   -2.9570   14.9350    1.1530 C   0  0  0  0  0  0  0  0  0  0  0  0
   -0.6610   14.6110    1.1030 C   0  0  0  0  0  0  0  0  0  0  0  0
   -2.6640    9.9730   -4.3810 N   0  0  0  0  0  0  0  0  0  0  0  0
   -4.1360   15.0990    1.8330 N   0  0  0  0  0  0  0  0  0  0  0  0
   -3.5610    9.2740   -3.4460 C   0  0  0  0  0  0  0  0  0  0  0  0
   -1.8030   14.7380    1.8260 N   0  0  0  0  0  0  0  0  0  0  0  0
   -3.7810    7.8100   -3.7980 C   0  0  0  0  0  0  0  0  0  0  0  0
   -3.7760    7.0900   -2.5700 O   0  0  0  0  0  0  0  0  0  0  0  0
  1  2  1  0
  2  3  1  0
  1  4  2  0
  1  5  1  1
  1  6  1  0
  6  7  1  0
  2  8  1  0
  2  9  1  1
  7 10  2  0
  7 11  1  6
  7 12  1  0
 13  3  1  6
 12 14  1  0
 13 15  1  0
 13 16  1  0
 16 17  1  1
 16 18  1  0
 15 19  1  0
 18 19  1  0
 20 14  1  6
 20 21  1  0
 20 22  1  0
 19 23  1  1
 18 24  1  1
 21 25  1  6
 22 26  1  0
 21 27  1  0
 26 27  1  0
 23 28  1  0
 23 29  1  0
 24 30  1  0
 24 31  1  0
 26 32  1  1
 27 33  1  6
 28 34  2  0
 28 35  1  0
 29 36  2  0
 34 36  1  0
 30 37  1  0
 31 38  1  0
 34 39  1  0
 35 40  2  0
 37 41  1  0
 38 41  1  0
 39 42  1  0
 41 43  1  0
 39 44  2  0
 40 44  1  0
 43 45  1  0
 45 46  1  0
M  END
>  <%Rank>  (78) 
76.237624

>  <N_hits>  (78) 
2

>  <submitter_name>  (78) 
nan

>  <original SMILES>  (78) 
nan

>  <∆G_unbound>  (78) 
7.478991

>  <∆G_bound>  (78) 
-8.963555

>  <regarded>  (78) 
mArh-5cms_K_10_K,mArh-4j4z_0_A

>  <ref_pdb>  (78) 
nan

>  <smiles>  (78) 
CC(O)(CC1OC(n2cnc3c(N)ncnc32)C(N2CCN(CCO)CC2)C1O)[P@@](=O)(O)O[P@@](=O)(O)OCC1OC(O)C(O)C1O

>  <submitter_email>  (78) 
nan

>  <disregarded>  (78) 


>  <LE>  (78) 
-0.357447

>  <submitter_institution>  (78) 
nan

>  <ref_mols>  (78) 
mArh-5cms_K_10_K,mArh-4j4z_0_A

>  <N_constrained_atoms>  (78) 
46.0

>  <ref_url>  (78) 
nan

>  <method>  (78) 
nan

>  <comRMSD>  (78) 
1.197154

>  <N_unconstrained_atoms>  (78) 
0.0

>  <∆∆G>  (78) 
-16.442546

>  <runtime>  (78) 
57.247113

>  <generation_date>  (78) 
nan

$$$$
mArh-x0662_0_A-mArh-x0864_0_A
     RDKit          3D

 28 30  0  0  0  0  0  0  0  0999 V2000
    5.4860    9.5830  -15.1920 C   0  0  0  0  0  0  0  0  0  0  0  0
    4.4430   10.0160  -14.2970 N   0  0  0  0  0  0  0  0  0  0  0  0
    3.7970   11.2230  -14.3070 C   0  0  0  0  0  0  0  0  0  0  0  0
    4.0140    9.1600  -13.3020 N   0  0  0  0  0  0  0  0  0  0  0  0
    2.9110   11.1090  -13.2460 C   0  0  0  0  0  0  0  0  0  0  0  0
    3.0580    9.8570  -12.6530 C   0  0  0  0  0  0  0  0  0  0  0  0
    2.3430    9.3000  -11.5040 C   0  0  0  0  0  0  0  0  0  0  0  0
    2.6540    8.2280  -10.9960 O   0  0  0  0  0  0  0  0  0  0  0  0
    1.3320   10.1270  -11.1100 N   0  0  0  0  0  0  0  0  0  0  0  0
    0.7630   10.1880   -9.8520 C   0  0  0  0  0  0  0  0  0  0  0  0
   -0.4620    9.5670   -9.7470 C   0  0  0  0  0  0  0  0  0  0  0  0
    1.4190   10.8260   -8.8550 C   0  0  0  0  0  0  0  0  0  0  0  0
   -1.1770    9.5710   -8.4460 C   0  0  0  0  0  0  0  0  0  0  0  0
    0.8250   10.9110   -7.4720 C   0  0  0  0  0  0  0  0  0  0  0  0
    1.6270   11.6400   -6.4000 C   0  0  0  0  0  0  0  0  0  0  0  0
   -0.4390   10.2880   -7.3270 C   0  0  0  0  0  0  0  0  0  0  0  0
    0.8860   11.8530   -5.1900 N   0  0  0  0  0  0  0  0  0  0  0  0
   -0.2940   11.2020   -5.3510 C   0  0  0  0  0  0  0  0  0  0  0  0
    1.5730   11.3660   -3.9610 C   0  0  0  0  0  0  0  0  0  0  0  0
   -1.4660   11.8890   -4.9170 N   0  0  0  0  0  0  0  0  0  0  0  0
   -0.3370    9.7970   -5.9760 C   0  0  0  0  0  0  0  0  0  0  0  0
    0.9620   11.7990   -2.7770 C   0  0  0  0  0  0  0  0  0  0  0  0
   -2.6200   11.2570   -5.0750 C   0  0  0  0  0  0  0  0  0  0  0  0
   -1.6320    9.3020   -6.0620 C   0  0  0  0  0  0  0  0  0  0  0  0
    0.1260   10.8450   -2.2610 O   0  0  0  0  0  0  0  0  0  0  0  0
    1.1440   12.8880   -2.2500 O   0  0  0  0  0  0  0  0  0  0  0  0
   -1.9070    7.5860   -6.8120 Br  0  0  0  0  0  0  0  0  0  0  0  0
   -2.7560   10.0310   -5.6130 C   0  0  0  0  0  0  0  0  0  0  0  0
  1  2  1  0
  2  3  1  0
  2  4  1  0
  3  5  2  0
  4  6  2  0
  5  6  1  0
  6  7  1  0
  7  8  2  0
  7  9  1  0
  9 10  1  0
 10 11  2  0
 10 12  1  0
 11 13  1  0
 12 14  2  0
 14 15  1  0
 13 16  2  0
 14 16  1  0
 15 17  1  0
 17 18  1  0
 17 19  1  0
 18 20  2  0
 18 21  1  0
 19 22  1  0
 20 23  1  0
 21 24  2  0
 22 25  1  0
 22 26  2  0
 24 27  1  0
 23 28  2  0
 24 28  1  0
M  END
>  <%Rank>  (79) 
77.227723

>  <N_hits>  (79) 
2

>  <submitter_name>  (79) 
nan

>  <original SMILES>  (79) 
nan

>  <∆G_unbound>  (79) 
1.537235

>  <∆G_bound>  (79) 
-0.110575

>  <regarded>  (79) 
mArh-x0662_0_A,mArh-x0864_0_A

>  <ref_pdb>  (79) 
nan

>  <smiles>  (79) 
Cn1ccc(C(=O)Nc2cccc(CN(CC(=O)O)c3cc(Br)ccn3)c2)n1

>  <submitter_email>  (79) 
nan

>  <disregarded>  (79) 


>  <LE>  (79) 
-0.05885

>  <submitter_institution>  (79) 
nan

>  <ref_mols>  (79) 
mArh-x0662_0_A,mArh-x0864_0_A

>  <N_constrained_atoms>  (79) 
27.0

>  <ref_url>  (79) 
nan

>  <method>  (79) 
nan

>  <comRMSD>  (79) 
0.848815

>  <N_unconstrained_atoms>  (79) 
1.0

>  <∆∆G>  (79) 
-1.64781

>  <runtime>  (79) 
38.235165

>  <generation_date>  (79) 
nan

$$$$
mArh-5cms_N_13_N-mArh-5cb5_K_0_K
     RDKit          3D

 44 49  0  0  0  0  0  0  0  0999 V2000
   -1.8360   18.0370   -6.0260 P   0  0  2  0  0  0  0  0  0  0  0  0
   -0.4060   17.4860   -6.4540 O   0  0  0  0  0  0  0  0  0  0  0  0
    0.5800   16.9220   -5.6120 C   0  0  0  0  0  0  0  0  0  0  0  0
   -1.9220   18.8660   -4.8320 O   0  0  0  0  0  0  0  0  0  0  0  0
   -2.7760   16.7690   -5.8320 O   0  0  0  0  0  0  0  0  0  0  0  0
   -2.3810   18.7880   -7.2600 O   0  0  0  0  0  0  0  0  0  0  0  0
   -1.3830   19.8350   -7.8730 P   0  0  1  0  0  0  0  0  0  0  0  0
   -0.3930   20.4530   -6.9760 O   0  0  0  0  0  0  0  0  0  0  0  0
   -0.5040   18.8070   -8.7510 O   0  0  0  0  0  0  0  0  0  0  0  0
   -2.0590   20.8180   -9.0770 O   0  0  0  0  0  0  0  0  0  0  0  0
    0.0530   15.7010   -4.8890 C   0  0  2  0  0  0  0  0  0  0  0  0
   -3.3340   21.5610   -9.1580 C   0  0  2  0  0  0  0  0  0  0  0  0
    0.6620   15.6640   -3.6010 O   0  0  0  0  0  0  0  0  0  0  0  0
    0.1380   14.2530   -5.4800 C   0  0  1  0  0  0  0  0  0  0  0  0
    1.2900   13.8680   -6.2130 O   0  0  0  0  0  0  0  0  0  0  0  0
    0.2390   13.3960   -4.2250 C   0  0  0  0  0  0  0  0  0  0  0  0
    0.2380   14.4000   -3.0890 C   0  0  2  0  0  0  0  0  0  0  0  0
   -4.0130   22.3210  -10.3450 C   0  0  1  0  0  0  0  0  0  0  0  0
   -3.8380   22.1730   -7.9880 C   0  0  2  0  0  0  0  0  0  0  0  0
    1.4080   12.6210   -4.4120 O   0  0  0  0  0  0  0  0  0  0  0  0
   -0.8320   12.4840   -4.1250 O   0  0  0  0  0  0  0  0  0  0  0  0
   -4.8520   23.4880   -9.8950 C   0  0  1  0  0  0  0  0  0  0  0  0
   -3.7900   22.5990  -11.8320 C   0  0  1  0  0  0  0  0  0  0  0  0
   -0.9630   14.5670   -2.3250 N   0  0  0  0  0  0  0  0  0  0  0  0
   -3.7620   23.6370   -7.7770 C   0  0  1  0  0  0  0  0  0  0  0  0
   -3.8420   21.4600   -6.8220 O   0  0  0  0  0  0  0  0  0  0  0  0
   -4.2570   24.3390   -8.9360 O   0  0  0  0  0  0  0  0  0  0  0  0
   -3.1080   21.6750  -12.6560 O   0  0  0  0  0  0  0  0  0  0  0  0
   -5.3590   24.0690  -11.2450 C   0  0  2  0  0  0  0  0  0  0  0  0
   -1.0750   14.6740   -1.0140 C   0  0  0  0  0  0  0  0  0  0  0  0
   -2.2810   14.6560   -2.7460 C   0  0  0  0  0  0  0  0  0  0  0  0
   -5.0700   22.0590   -6.5460 C   0  0  2  0  0  0  0  0  0  0  0  0
   -4.7160   23.5790   -6.5850 C   0  0  2  0  0  0  0  0  0  0  0  0
   -5.2190   22.8810  -12.2020 C   0  0  0  0  0  0  0  0  0  0  0  0
   -4.4770   25.0530  -11.7530 O   0  0  0  0  0  0  0  0  0  0  0  0
   -5.5770   21.5560   -5.3460 O   0  0  0  0  0  0  0  0  0  0  0  0
   -5.8960   24.3170   -6.8170 O   0  0  0  0  0  0  0  0  0  0  0  0
   -2.3730   14.8190   -0.5680 C   0  0  0  0  0  0  0  0  0  0  0  0
    0.0220   14.6360   -0.2370 N   0  0  0  0  0  0  0  0  0  0  0  0
   -3.1500   14.8070   -1.7190 N   0  0  0  0  0  0  0  0  0  0  0  0
   -2.6110   14.9370    0.8040 C   0  0  0  0  0  0  0  0  0  0  0  0
   -0.2510   14.7490    1.0790 C   0  0  0  0  0  0  0  0  0  0  0  0
   -3.8590   15.0940    1.3800 N   0  0  0  0  0  0  0  0  0  0  0  0
   -1.4350   14.8890    1.6850 N   0  0  0  0  0  0  0  0  0  0  0  0
  1  2  1  0
  2  3  1  0
  1  4  2  0
  1  5  1  1
  1  6  1  0
  6  7  1  0
  7  8  2  0
  7  9  1  6
  7 10  1  0
 11  3  1  6
 12 10  1  6
 11 13  1  0
 11 14  1  0
 14 15  1  6
 14 16  1  0
 13 17  1  0
 16 17  1  0
 12 18  1  0
 12 19  1  0
 16 20  1  0
 16 21  1  0
 18 22  1  0
 18 23  1  6
 17 24  1  6
 19 25  1  0
 19 26  1  1
 22 27  1  6
 25 27  1  6
 23 28  1  6
 22 29  1  0
 24 30  1  0
 24 31  1  0
 26 32  1  0
 25 33  1  0
 32 33  1  0
 23 34  1  0
 29 34  1  0
 29 35  1  6
 32 36  1  1
 33 37  1  6
 30 38  2  0
 30 39  1  0
 31 40  2  0
 38 40  1  0
 38 41  1  0
 39 42  2  0
 41 43  1  0
 41 44  2  0
 42 44  1  0
M  END
>  <%Rank>  (80) 
78.217822

>  <N_hits>  (80) 
2

>  <submitter_name>  (80) 
nan

>  <original SMILES>  (80) 
nan

>  <∆G_unbound>  (80) 
9.833405

>  <∆G_bound>  (80) 
-9.027637

>  <regarded>  (80) 
mArh-5cms_N_13_N,mArh-5cb5_K_0_K

>  <ref_pdb>  (80) 
nan

>  <smiles>  (80) 
Nc1ncnc2c1ncn2C1OC(CO[P@@](=O)(O)O[P@@](=O)(O)OC2C3OC(O)C(O)C3OC3C(O)CC(O)C32)C(O)C1(O)O

>  <submitter_email>  (80) 
nan

>  <disregarded>  (80) 


>  <LE>  (80) 
-0.42866

>  <submitter_institution>  (80) 
nan

>  <ref_mols>  (80) 
mArh-5cms_N_13_N,mArh-5cb5_K_0_K

>  <N_constrained_atoms>  (80) 
41.0

>  <ref_url>  (80) 
nan

>  <method>  (80) 
nan

>  <comRMSD>  (80) 
1.165992

>  <N_unconstrained_atoms>  (80) 
3.0

>  <∆∆G>  (80) 
-18.861042

>  <runtime>  (80) 
40.981798

>  <generation_date>  (80) 
nan

$$$$
mArh-x0216_0_A-mArh-x0933_4_B
     RDKit          3D

 21 23  0  0  0  0  0  0  0  0999 V2000
   18.4810   29.1210    7.0780 N   0  0  0  0  0  0  0  0  0  0  0  0
   17.0780   28.8530    7.1860 C   0  0  1  0  0  0  0  0  0  0  0  0
   16.2520   29.9100    7.8990 C   0  0  1  0  0  0  0  0  0  0  0  0
   19.3270   28.0800    7.0760 C   0  0  0  0  0  0  0  0  0  0  0  0
   19.6780   27.5890    8.1330 O   0  0  0  0  0  0  0  0  0  0  0  0
   19.7760   27.5940    5.8550 N   0  0  0  0  0  0  0  0  0  0  0  0
   16.5980   29.0620    5.8120 C   0  0  0  0  0  0  0  0  0  0  0  0
   16.8450   30.5480    5.6840 C   0  0  0  0  0  0  0  0  0  0  0  0
   19.3240   28.0120    4.5220 C   0  0  0  0  0  0  0  0  0  0  0  0
   20.9650   26.7550    5.9190 C   0  0  2  0  0  0  0  0  0  0  0  0
   16.8590   30.5070    9.1410 C   0  0  0  0  0  0  0  0  0  0  0  0
   16.0020   30.9960    6.8490 C   0  0  2  0  0  0  0  0  0  0  0  0
   22.2510   27.5540    6.2040 C   0  0  0  0  0  0  0  0  0  0  0  0
   21.1810   25.8190    4.7190 C   0  0  0  0  0  0  0  0  0  0  0  0
   17.9250   31.4730    8.8460 N   0  0  0  0  0  0  0  0  0  0  0  0
   16.2860   32.3370    7.3050 N   0  0  0  0  0  0  0  0  0  0  0  0
   22.8610   27.8700    4.8590 C   0  0  0  0  0  0  0  0  0  0  0  0
   22.7120   26.3440    3.9680 S   0  0  0  0  0  0  0  0  0  0  0  0
   17.6310   32.4420    7.8000 C   0  0  0  0  0  0  0  0  0  0  0  0
   22.4600   26.7130    2.5920 O   0  0  0  0  0  0  0  0  0  0  0  0
   23.7790   25.4480    4.3620 O   0  0  0  0  0  0  0  0  0  0  0  0
  2  1  1  6
  2  3  1  0
  1  4  1  0
  4  5  2  0
  4  6  1  0
  2  7  1  0
  7  8  1  0
  6  9  1  0
 10  6  1  6
  3 11  1  1
  3 12  1  0
 12  8  1  6
 10 13  1  0
 10 14  1  0
 11 15  1  0
 12 16  1  0
 13 17  1  0
 18 14  1  0
 17 18  1  0
 15 19  1  0
 16 19  1  0
 18 20  2  0
 18 21  2  0
M  END
>  <%Rank>  (81) 
79.207921

>  <N_hits>  (81) 
2

>  <submitter_name>  (81) 
nan

>  <original SMILES>  (81) 
nan

>  <∆G_unbound>  (81) 
0.894815

>  <∆G_bound>  (81) 
-3.763925

>  <regarded>  (81) 
mArh-x0216_0_A,mArh-x0933_4_B

>  <ref_pdb>  (81) 
nan

>  <smiles>  (81) 
CN(C(=O)NC1CCC2NCNCC21)C1CCS(=O)(=O)C1

>  <submitter_email>  (81) 
nan

>  <disregarded>  (81) 


>  <LE>  (81) 
-0.221845

>  <submitter_institution>  (81) 
nan

>  <ref_mols>  (81) 
mArh-x0216_0_A,mArh-x0933_4_B

>  <N_constrained_atoms>  (81) 
18.0

>  <ref_url>  (81) 
nan

>  <method>  (81) 
nan

>  <comRMSD>  (81) 
0.730708

>  <N_unconstrained_atoms>  (81) 
3.0

>  <∆∆G>  (81) 
-4.658739

>  <runtime>  (81) 
30.268558

>  <generation_date>  (81) 
nan

$$$$
mArh-x0844_0_A-mArh-x0574_0_A
     RDKit          3D

 14 15  0  0  0  0  0  0  0  0999 V2000
   -7.2920   14.5070    0.5200 N   0  0  0  0  0  0  0  0  0  0  0  0
   -7.6030   14.3580    1.9420 C   0  0  0  0  0  0  0  0  0  0  0  0
   -6.1030   14.9200    0.2600 C   0  0  0  0  0  0  0  0  0  0  0  0
   -5.3030   15.1700    1.3400 N   0  0  0  0  0  0  0  0  0  0  0  0
   -5.4900   15.1840   -1.1050 C   0  0  0  0  0  0  0  0  0  0  0  0
   -4.0080   15.7700    1.1530 C   0  0  0  0  0  0  0  0  0  0  0  0
   -4.0610   14.6170   -1.1270 C   0  0  1  0  0  0  0  0  0  0  0  0
   -3.2350   15.0610   -2.8520 Br  0  0  0  0  0  0  0  0  0  0  0  0
   -3.2000   14.9790    0.1120 C   0  0  1  0  0  0  0  0  0  0  0  0
   -1.5690   15.7020   -0.3930 S   0  0  0  0  0  0  0  0  0  0  0  0
   -2.6740   13.8240    0.9220 C   0  0  0  0  0  0  0  0  0  0  0  0
   -1.5450   14.2510    1.7500 N   0  0  0  0  0  0  0  0  0  0  0  0
   -0.6130   14.8330    0.8410 C   0  0  1  0  0  0  0  0  0  0  0  0
    0.1080   13.7250    0.3250 N   0  0  0  0  0  0  0  0  0  0  0  0
  1  2  1  0
  1  3  2  3
  3  4  1  0
  3  5  1  0
  4  6  1  0
  5  7  1  0
  7  8  1  6
  9  6  1  1
  7  9  1  0
  9 10  1  0
  9 11  1  0
 11 12  1  0
 10 13  1  0
 12 13  1  0
 13 14  1  6
M  END
>  <%Rank>  (82) 
80.19802

>  <N_hits>  (82) 
2

>  <submitter_name>  (82) 
nan

>  <original SMILES>  (82) 
nan

>  <∆G_unbound>  (82) 
0.461654

>  <∆G_bound>  (82) 
-4.133349

>  <regarded>  (82) 
mArh-x0844_0_A,mArh-x0574_0_A

>  <ref_pdb>  (82) 
nan

>  <smiles>  (82) 
CN=C1CC(Br)C2(CN1)CNC(N)S2

>  <submitter_email>  (82) 
nan

>  <disregarded>  (82) 


>  <LE>  (82) 
-0.328215

>  <submitter_institution>  (82) 
nan

>  <ref_mols>  (82) 
mArh-x0844_0_A,mArh-x0574_0_A

>  <N_constrained_atoms>  (82) 
14.0

>  <ref_url>  (82) 
nan

>  <method>  (82) 
nan

>  <comRMSD>  (82) 
0.810639

>  <N_unconstrained_atoms>  (82) 
0.0

>  <∆∆G>  (82) 
-4.595004

>  <runtime>  (82) 
18.281132

>  <generation_date>  (82) 
nan

$$$$
mArh-x0587_0_A-mArh-5cms_E_5_E
     RDKit          3D

 48 52  0  0  0  0  0  0  0  0999 V2000
   -7.9140   14.8160    4.2340 N   0  0  0  0  0  0  0  0  0  0  0  0
   -8.3950   14.8980    2.9630 C   0  0  0  0  0  0  0  0  0  0  0  0
   -9.5600   15.0710    2.6300 O   0  0  0  0  0  0  0  0  0  0  0  0
   -7.4190   14.7910    1.8000 C   0  0  0  0  0  0  0  0  0  0  0  0
   -7.9820   14.6660    0.4090 C   0  0  0  0  0  0  0  0  0  0  0  0
   -6.0640   14.8080    1.8850 C   0  0  0  0  0  0  0  0  0  0  0  0
   -7.1690   14.5880   -0.6640 N   0  0  0  0  0  0  0  0  0  0  0  0
   -5.2580   14.7290    0.8100 N   0  0  0  0  0  0  0  0  0  0  0  0
   -5.8290   14.6280   -0.4190 C   0  0  0  0  0  0  0  0  0  0  0  0
   -4.8730   14.5610   -1.6280 C   0  0  0  0  0  0  0  0  0  0  0  0
   -4.5440   13.2640   -1.9280 F   0  0  0  0  0  0  0  0  0  0  0  0
   -5.4300   15.0510   -2.7670 F   0  0  0  0  0  0  0  0  0  0  0  0
   -3.6360   15.2960   -1.4140 N   0  0  0  0  0  0  0  0  0  0  0  0
   -2.7890   14.8270   -0.3180 C   0  0  2  0  0  0  0  0  0  0  0  0
   -2.7770   15.1160   -2.5900 C   0  0  0  0  0  0  0  0  0  0  0  0
   -2.5870   15.4660    1.0490 C   0  0  1  0  0  0  0  0  0  0  0  0
   -1.3790   14.8510   -0.8940 C   0  0  2  0  0  0  0  0  0  0  0  0
   -1.7090   14.2260   -2.1410 N   0  0  0  0  0  0  0  0  0  0  0  0
   -3.7930   15.6040    1.8380 N   0  0  0  0  0  0  0  0  0  0  0  0
   -0.5800   14.1070   -3.0280 C   0  0  2  0  0  0  0  0  0  0  0  0
   -1.6660   14.6750    1.8040 N   0  0  0  0  0  0  0  0  0  0  0  0
   -0.4140   14.1000   -0.1200 N   0  0  0  0  0  0  0  0  0  0  0  0
    0.1660   15.3220   -3.1700 O   0  0  0  0  0  0  0  0  0  0  0  0
   -0.8900   13.5830   -4.4420 C   0  0  2  0  0  0  0  0  0  0  0  0
   -0.3390   14.5750    1.2430 C   0  0  0  0  0  0  0  0  0  0  0  0
   -1.0570   12.1600   -4.5130 O   0  0  0  0  0  0  0  0  0  0  0  0
    0.7700   15.3400   -4.4770 C   0  0  1  0  0  0  0  0  0  0  0  0
    0.3680   14.0250   -5.1790 C   0  0  1  0  0  0  0  0  0  0  0  0
    0.3830   16.6740   -5.1200 C   0  0  0  0  0  0  0  0  0  0  0  0
    1.3750   13.0220   -5.1860 O   0  0  0  0  0  0  0  0  0  0  0  0
   -1.0090   16.9410   -4.9640 O   0  0  0  0  0  0  0  0  0  0  0  0
   -1.6320   18.0230   -5.9600 P   0  0  1  0  0  0  0  0  0  0  0  0
   -2.6680   17.4930   -6.8720 O   0  0  0  0  0  0  0  0  0  0  0  0
   -2.2420   19.1540   -5.0200 O   0  0  0  0  0  0  0  0  0  0  0  0
   -0.3980   18.7660   -6.5810 O   0  0  0  0  0  0  0  0  0  0  0  0
   -0.3670   19.7570   -7.8030 P   0  0  1  0  0  0  0  0  0  0  0  0
    0.6620   20.8240   -7.7650 O   0  0  0  0  0  0  0  0  0  0  0  0
   -0.0810   18.7090   -8.9650 O   0  0  0  0  0  0  0  0  0  0  0  0
   -1.8980   20.2260   -7.9930 O   0  0  0  0  0  0  0  0  0  0  0  0
   -2.2450   21.6140   -8.1400 C   0  0  0  0  0  0  0  0  0  0  0  0
   -3.7150   21.7250   -8.6220 C   0  0  2  0  0  0  0  0  0  0  0  0
   -3.9290   22.2620   -9.9980 C   0  0  1  0  0  0  0  0  0  0  0  0
   -4.5220   22.5790   -7.8080 O   0  0  0  0  0  0  0  0  0  0  0  0
   -5.1670   22.1980  -10.6510 O   0  0  0  0  0  0  0  0  0  0  0  0
   -4.6740   23.7670   -8.5530 C   0  0  2  0  0  0  0  0  0  0  0  0
   -3.6720   23.6950   -9.6210 C   0  0  2  0  0  0  0  0  0  0  0  0
   -4.3470   24.8390   -7.7310 O   0  0  0  0  0  0  0  0  0  0  0  0
   -3.9790   24.6020  -10.7180 O   0  0  0  0  0  0  0  0  0  0  0  0
  1  2  1  0
  2  3  2  0
  2  4  1  0
  4  5  2  0
  4  6  1  0
  5  7  1  0
  6  8  2  0
  7  9  2  0
  8  9  1  0
  9 10  1  0
 10 11  1  0
 10 12  1  0
 10 13  1  0
 14 13  1  6
 13 15  1  0
 14 16  1  0
 14 17  1  0
 15 18  1  0
 17 18  1  0
 16 19  1  1
 20 18  1  6
 16 21  1  0
 17 22  1  1
 20 23  1  0
 20 24  1  0
 21 25  1  0
 22 25  1  0
 24 26  1  1
 23 27  1  0
 24 28  1  0
 27 28  1  0
 27 29  1  6
 28 30  1  1
 29 31  1  0
 31 32  1  0
 32 33  2  0
 32 34  1  1
 32 35  1  0
 35 36  1  0
 36 37  2  0
 36 38  1  6
 36 39  1  0
 39 40  1  0
 41 40  1  1
 41 42  1  0
 41 43  1  0
 42 44  1  1
 43 45  1  0
 42 46  1  0
 45 46  1  0
 45 47  1  1
 46 48  1  6
M  END
>  <%Rank>  (83) 
81.188119

>  <N_hits>  (83) 
2

>  <submitter_name>  (83) 
nan

>  <original SMILES>  (83) 
nan

>  <∆G_unbound>  (83) 
12.236468

>  <∆G_bound>  (83) 
-4.110629

>  <regarded>  (83) 
mArh-x0587_0_A,mArh-5cms_E_5_E

>  <ref_pdb>  (83) 
nan

>  <smiles>  (83) 
NC(=O)c1cnc(C(F)(F)N2CN(C3OC(CO[P@@](=O)(O)O[P@@](=O)(O)OCC4OC(O)C(O)C4O)C(O)C3O)C3NCNC(N)C32)nc1

>  <submitter_email>  (83) 
nan

>  <disregarded>  (83) 


>  <LE>  (83) 
-0.340565

>  <submitter_institution>  (83) 
nan

>  <ref_mols>  (83) 
mArh-x0587_0_A,mArh-5cms_E_5_E

>  <N_constrained_atoms>  (83) 
48.0

>  <ref_url>  (83) 
nan

>  <method>  (83) 
nan

>  <comRMSD>  (83) 
1.283923

>  <N_unconstrained_atoms>  (83) 
0.0

>  <∆∆G>  (83) 
-16.347098

>  <runtime>  (83) 
27.515826

>  <generation_date>  (83) 
nan

$$$$
mArh-6ywk_E_2_E-mArh-x1018_0_A
     RDKit          3D

 30 32  0  0  0  0  0  0  0  0999 V2000
    1.1710   20.6640   -7.5030 O   0  0  0  0  0  0  0  0  0  0  0  0
    0.0350   19.7660   -7.3440 S   0  0  2  0  0  0  0  0  0  0  0  0
   -0.0490   18.5130   -6.4790 N   0  0  0  0  0  0  0  0  0  0  0  0
    0.0050   18.8740   -8.6950 O   0  0  0  0  0  0  0  0  0  0  0  0
   -1.5370   20.6410   -7.3400 C   0  0  0  0  0  0  0  0  0  0  0  0
   -1.4110   22.0560   -7.8710 C   0  0  0  0  0  0  0  0  0  0  0  0
    1.0300   18.0400   -5.6220 C   0  0  0  0  0  0  0  0  0  0  0  0
    0.6350   16.7620   -4.8760 C   0  0  0  0  0  0  0  0  0  0  0  0
   -2.6690   22.7920   -8.2550 N   0  0  0  0  0  0  0  0  0  0  0  0
   -0.3770   16.9340   -3.7340 C   0  0  0  0  0  0  0  0  0  0  0  0
   -3.1700   23.7250   -7.2410 C   0  0  0  0  0  0  0  0  0  0  0  0
   -3.7660   22.0040   -8.8360 C   0  0  0  0  0  0  0  0  0  0  0  0
   -1.0330   15.6260   -3.2620 C   0  0  0  0  0  0  0  0  0  0  0  0
   -4.2630   23.2020   -6.2780 C   0  0  0  0  0  0  0  0  0  0  0  0
   -4.8960   21.5660   -7.8540 C   0  0  0  0  0  0  0  0  0  0  0  0
   -2.4670   15.7990   -2.7270 C   0  0  0  0  0  0  0  0  0  0  0  0
   -5.3860   22.6930   -7.0500 N   0  0  0  0  0  0  0  0  0  0  0  0
   -5.8500   23.7970   -7.8920 C   0  0  0  0  0  0  0  0  0  0  0  0
   -3.1120   14.5950   -2.1850 N   0  0  0  0  0  0  0  0  0  0  0  0
   -6.9150   23.6300   -8.9910 C   0  0  0  0  0  0  0  0  0  0  0  0
   -2.8950   14.5210   -0.7460 N   0  0  0  0  0  0  0  0  0  0  0  0
   -4.5380   14.6070   -2.3810 N   0  0  0  0  0  0  0  0  0  0  0  0
   -7.3100   22.2800   -9.2150 O   0  0  0  0  0  0  0  0  0  0  0  0
   -5.0520   15.1630   -1.2180 N   0  0  0  0  0  0  0  0  0  0  0  0
   -4.0090   15.3010   -0.2000 C   0  0  1  0  0  0  0  0  0  0  0  0
   -6.3910   14.9730   -0.9700 N   0  0  0  0  0  0  0  0  0  0  0  0
   -4.4860   14.8920    1.1520 C   0  0  0  0  0  0  0  0  0  0  0  0
   -6.7220   14.7210    0.2560 C   0  0  0  0  0  0  0  0  0  0  0  0
   -5.7830   14.6160    1.3900 C   0  0  0  0  0  0  0  0  0  0  0  0
   -8.4070   14.5020    0.5700 Cl  0  0  0  0  0  0  0  0  0  0  0  0
  1  2  2  0
  2  3  2  0
  2  4  1  6
  2  5  1  0
  5  6  1  0
  3  7  1  0
  7  8  1  0
  6  9  1  0
  8 10  1  0
  9 11  1  0
  9 12  1  0
 10 13  1  0
 11 14  1  0
 12 15  1  0
 13 16  1  0
 14 17  1  0
 15 17  1  0
 17 18  1  0
 16 19  1  0
 18 20  1  0
 19 21  1  0
 19 22  1  0
 20 23  1  0
 22 24  1  0
 21 25  1  0
 24 25  1  0
 24 26  1  0
 25 27  1  1
 26 28  2  0
 27 29  2  0
 28 29  1  0
 28 30  1  0
M  END
>  <%Rank>  (84) 
82.178218

>  <N_hits>  (84) 
2

>  <submitter_name>  (84) 
nan

>  <original SMILES>  (84) 
nan

>  <∆G_unbound>  (84) 
1.955371

>  <∆G_bound>  (84) 
-13.9561

>  <regarded>  (84) 
mArh-6ywk_E_2_E,mArh-x1018_0_A

>  <ref_pdb>  (84) 
nan

>  <smiles>  (84) 
O=S(O)(CCN1CCN(CCO)CC1)=NCCCCCN1NC2C=CC(Cl)=NN2N1

>  <submitter_email>  (84) 
nan

>  <disregarded>  (84) 


>  <LE>  (84) 
-0.530382

>  <submitter_institution>  (84) 
nan

>  <ref_mols>  (84) 
mArh-6ywk_E_2_E,mArh-x1018_0_A

>  <N_constrained_atoms>  (84) 
25.0

>  <ref_url>  (84) 
nan

>  <method>  (84) 
nan

>  <comRMSD>  (84) 
1.073055

>  <N_unconstrained_atoms>  (84) 
5.0

>  <∆∆G>  (84) 
-15.911471

>  <runtime>  (84) 
53.938328

>  <generation_date>  (84) 
nan

$$$$
mArh-1hjz_B_0_B-mArh-x0685_1_A
     RDKit          3D

 30 31  0  0  0  0  0  0  0  0999 V2000
    0.9210   21.0860   -7.6270 O   0  0  0  0  0  0  0  0  0  0  0  0
    0.0150   19.9590   -7.7690 S   0  0  0  0  0  0  0  0  0  0  0  0
    0.2810   18.8710   -8.6970 O   0  0  0  0  0  0  0  0  0  0  0  0
   -0.2170   19.2670   -6.3030 O   0  0  0  0  0  0  0  0  0  0  0  0
   -1.6350   20.5660   -8.0750 C   0  0  0  0  0  0  0  0  0  0  0  0
   -1.9770   21.8260   -7.3120 C   0  0  0  0  0  0  0  0  0  0  0  0
    0.8710   18.5220   -5.7220 C   0  0  0  0  0  0  0  0  0  0  0  0
    0.5660   17.0350   -5.6800 C   0  0  0  0  0  0  0  0  0  0  0  0
   -3.3840   22.2450   -7.5340 N   0  0  0  0  0  0  0  0  0  0  0  0
    0.5190   16.4600   -4.2650 C   0  0  0  0  0  0  0  0  0  0  0  0
   -3.6280   22.7060   -8.9000 C   0  0  0  0  0  0  0  0  0  0  0  0
   -3.7560   23.3620   -6.6370 C   0  0  0  0  0  0  0  0  0  0  0  0
    1.3130   15.1480   -4.0880 C   0  0  0  0  0  0  0  0  0  0  0  0
   -5.0630   23.1380   -9.1750 C   0  0  0  0  0  0  0  0  0  0  0  0
   -5.1910   23.8190   -6.8970 C   0  0  0  0  0  0  0  0  0  0  0  0
    0.7010   13.9200   -4.8000 C   0  0  0  0  0  0  0  0  0  0  0  0
   -5.4690   24.1540   -8.2650 O   0  0  0  0  0  0  0  0  0  0  0  0
   -0.2030   13.0250   -3.9060 C   0  0  1  0  0  0  0  0  0  0  0  0
   -1.1840   12.1650   -4.7300 C   0  0  0  0  0  0  0  0  0  0  0  0
    0.6990   12.0380   -2.6760 S   0  0  0  0  0  0  0  0  0  0  0  0
   -0.8030   10.7560   -4.9130 N   0  0  0  0  0  0  0  0  0  0  0  0
    2.1110   12.2860   -2.8650 O   0  0  0  0  0  0  0  0  0  0  0  0
    0.1610   10.6940   -2.4850 O   0  0  0  0  0  0  0  0  0  0  0  0
    0.2700   12.8130   -1.3270 O   0  0  0  0  0  0  0  0  0  0  0  0
   -1.1880   10.1430   -6.2030 C   0  0  0  0  0  0  0  0  0  0  0  0
   -0.1240    9.1660   -6.7150 C   0  0  0  0  0  0  0  0  0  0  0  0
   -1.4510   11.2070   -7.2780 C   0  0  0  0  0  0  0  0  0  0  0  0
   -0.5080    8.3750   -7.9470 C   0  0  0  0  0  0  0  0  0  0  0  0
   -1.0060   10.7480   -8.6750 C   0  0  0  0  0  0  0  0  0  0  0  0
   -1.2110    9.2560   -8.9650 C   0  0  0  0  0  0  0  0  0  0  0  0
  1  2  2  0
  2  3  2  0
  2  4  1  0
  2  5  1  0
  5  6  1  0
  4  7  1  0
  7  8  1  0
  6  9  1  0
  8 10  1  0
  9 11  1  0
  9 12  1  0
 10 13  1  0
 11 14  1  0
 12 15  1  0
 13 16  1  0
 14 17  1  0
 15 17  1  0
 18 16  1  6
 18 19  1  0
 18 20  1  0
 19 21  1  0
 20 22  2  0
 20 23  2  0
 20 24  1  0
 21 25  1  0
 25 26  1  0
 25 27  1  0
 26 28  1  0
 27 29  1  0
 28 30  1  0
 29 30  1  0
M  END
>  <%Rank>  (85) 
83.168317

>  <N_hits>  (85) 
2

>  <submitter_name>  (85) 
nan

>  <original SMILES>  (85) 
nan

>  <∆G_unbound>  (85) 
0.450561

>  <∆G_bound>  (85) 
-14.783357

>  <regarded>  (85) 
mArh-1hjz_B_0_B,mArh-x0685_1_A

>  <ref_pdb>  (85) 
nan

>  <smiles>  (85) 
O=S(=O)(CCN1CCOCC1)OCCCCCC(CNC1CCCCC1)S(=O)(=O)O

>  <submitter_email>  (85) 
nan

>  <disregarded>  (85) 


>  <LE>  (85) 
-0.507797

>  <submitter_institution>  (85) 
nan

>  <ref_mols>  (85) 
mArh-1hjz_B_0_B,mArh-x0685_1_A

>  <N_constrained_atoms>  (85) 
25.0

>  <ref_url>  (85) 
nan

>  <method>  (85) 
nan

>  <comRMSD>  (85) 
1.070928

>  <N_unconstrained_atoms>  (85) 
5.0

>  <∆∆G>  (85) 
-15.233918

>  <runtime>  (85) 
64.134992

>  <generation_date>  (85) 
nan

$$$$
mArh-5cms_K_10_K-mArh-5l9k_B_0_B
     RDKit          3D

 44 48  0  0  0  0  0  0  0  0999 V2000
   -1.6420   18.1420   -5.8500 P   0  0  1  0  0  0  0  0  0  0  0  0
   -0.6970   17.3540   -4.8160 O   0  0  0  0  0  0  0  0  0  0  0  0
    0.5370   16.7640   -5.2310 C   0  0  0  0  0  0  0  0  0  0  0  0
   -2.4990   17.3410   -6.7280 O   0  0  0  0  0  0  0  0  0  0  0  0
   -2.4470   19.0660   -4.8540 O   0  0  0  0  0  0  0  0  0  0  0  0
   -1.0000   19.4300   -6.4180 O   0  0  0  0  0  0  0  0  0  0  0  0
   -1.2780   20.1640   -7.7840 P   0  0  1  0  0  0  0  0  0  0  0  0
   -0.0900   21.0600   -7.9200 O   0  0  0  0  0  0  0  0  0  0  0  0
   -1.0340   18.8770   -8.7120 O   0  0  0  0  0  0  0  0  0  0  0  0
   -2.8870   20.9280   -8.0280 O   0  0  0  0  0  0  0  0  0  0  0  0
    0.8670   15.4570   -4.4590 C   0  0  1  0  0  0  0  0  0  0  0  0
   -4.1910   21.3020   -9.0050 C   0  0  2  0  0  0  0  0  0  0  0  0
    0.2340   15.4550   -3.1640 O   0  0  0  0  0  0  0  0  0  0  0  0
    0.3960   14.1490   -5.1470 C   0  0  1  0  0  0  0  0  0  0  0  0
    1.3660   13.1020   -5.0710 O   0  0  0  0  0  0  0  0  0  0  0  0
   -0.8630   13.7160   -4.3810 C   0  0  2  0  0  0  0  0  0  0  0  0
   -1.0640   14.9190   -3.4630 C   0  0  1  0  0  0  0  0  0  0  0  0
   -4.3870   22.0540  -10.5470 C   0  0  2  0  0  0  0  0  0  0  0  0
   -4.9140   22.1020   -8.1070 C   0  0  2  0  0  0  0  0  0  0  0  0
   -0.5890   12.4730   -3.7430 O   0  0  0  0  0  0  0  0  0  0  0  0
   -4.1510   23.6610  -10.7900 C   0  0  1  0  0  0  0  0  0  0  0  0
   -5.5850   21.9080  -11.2580 O   0  0  0  0  0  0  0  0  0  0  0  0
   -1.9550   14.9210   -2.3170 N   0  0  0  0  0  0  0  0  0  0  0  0
   -4.4620   23.5280   -7.9870 C   0  0  1  0  0  0  0  0  0  0  0  0
   -4.6480   21.3750   -6.9740 O   0  0  0  0  0  0  0  0  0  0  0  0
   -3.0450   24.1140  -11.5950 O   0  0  0  0  0  0  0  0  0  0  0  0
   -5.3600   24.3330   -8.7470 O   0  0  0  0  0  0  0  0  0  0  0  0
   -5.3290   22.7450  -12.3520 C   0  0  2  0  0  0  0  0  0  0  0  0
   -5.2280   24.0800  -11.6670 C   0  0  2  0  0  0  0  0  0  0  0  0
   -1.6750   14.8160   -0.9580 C   0  0  0  0  0  0  0  0  0  0  0  0
   -3.3100   15.0740   -2.4430 C   0  0  0  0  0  0  0  0  0  0  0  0
   -4.8630   22.2820   -6.0060 C   0  0  1  0  0  0  0  0  0  0  0  0
   -4.6170   23.7140   -6.5200 C   0  0  2  0  0  0  0  0  0  0  0  0
   -6.4050   22.7080  -13.2340 O   0  0  0  0  0  0  0  0  0  0  0  0
   -4.6450   25.1220  -12.4730 O   0  0  0  0  0  0  0  0  0  0  0  0
   -6.2180   22.0830   -5.8060 O   0  0  0  0  0  0  0  0  0  0  0  0
   -5.7520   24.5300   -6.3300 O   0  0  0  0  0  0  0  0  0  0  0  0
   -2.9260   14.9470   -0.3660 C   0  0  0  0  0  0  0  0  0  0  0  0
   -0.4930   14.6490   -0.3090 N   0  0  0  0  0  0  0  0  0  0  0  0
   -3.9270   15.0950   -1.2910 N   0  0  0  0  0  0  0  0  0  0  0  0
   -2.9810   14.9210    1.0280 C   0  0  0  0  0  0  0  0  0  0  0  0
   -0.6810   14.6210    1.0380 C   0  0  0  0  0  0  0  0  0  0  0  0
   -4.1880   15.0850    1.6810 N   0  0  0  0  0  0  0  0  0  0  0  0
   -1.8360   14.7410    1.7330 N   0  0  0  0  0  0  0  0  0  0  0  0
  1  2  1  0
  2  3  1  0
  1  4  2  0
  1  5  1  1
  1  6  1  0
  6  7  1  0
  7  8  2  0
  7  9  1  6
  7 10  1  0
 11  3  1  6
 12 10  1  1
 11 13  1  0
 11 14  1  0
 14 15  1  1
 14 16  1  0
 13 17  1  0
 16 17  1  0
 12 18  1  0
 12 19  1  0
 16 20  1  1
 18 21  1  0
 18 22  1  1
 17 23  1  1
 19 24  1  0
 19 25  1  1
 21 26  1  6
 24 27  1  6
 22 28  1  0
 21 29  1  0
 28 29  1  0
 23 30  1  0
 23 31  1  0
 25 32  1  0
 24 33  1  0
 32 33  1  0
 28 34  1  6
 29 35  1  6
 32 36  1  6
 33 37  1  6
 30 38  2  0
 30 39  1  0
 31 40  2  0
 38 40  1  0
 38 41  1  0
 39 42  2  0
 41 43  1  0
 41 44  2  0
 42 44  1  0
M  END
>  <%Rank>  (86) 
84.158416

>  <N_hits>  (86) 
2

>  <submitter_name>  (86) 
nan

>  <original SMILES>  (86) 
nan

>  <∆G_unbound>  (86) 
6.519983

>  <∆G_bound>  (86) 
-0.654711

>  <regarded>  (86) 
mArh-5cms_K_10_K,mArh-5l9k_B_0_B

>  <ref_pdb>  (86) 
nan

>  <smiles>  (86) 
Nc1ncnc2c1ncn2C1OC(CO[P@@](=O)(O)O[P@@](=O)(O)OC(C2OC(O)C(O)C2O)C2OC(O)C(O)C2O)C(O)C1O

>  <submitter_email>  (86) 
nan

>  <disregarded>  (86) 


>  <LE>  (86) 
-0.163061

>  <submitter_institution>  (86) 
nan

>  <ref_mols>  (86) 
mArh-5cms_K_10_K,mArh-5l9k_B_0_B

>  <N_constrained_atoms>  (86) 
44.0

>  <ref_url>  (86) 
nan

>  <method>  (86) 
nan

>  <comRMSD>  (86) 
1.247279

>  <N_unconstrained_atoms>  (86) 
0.0

>  <∆∆G>  (86) 
-7.174695

>  <runtime>  (86) 
46.844815

>  <generation_date>  (86) 
nan

$$$$
mArh-mac-242_0_A-mArh-5cms_B_1_B
     RDKit          3D

 36 39  0  0  0  0  0  0  0  0999 V2000
   -3.7140   13.8200    1.3630 N   0  0  0  0  0  0  0  0  0  0  0  0
   -2.6330   14.7640    1.1870 C   0  0  1  0  0  0  0  0  0  0  0  0
   -1.3610   14.4010    1.7510 N   0  0  0  0  0  0  0  0  0  0  0  0
   -2.5280   15.1790   -0.3060 C   0  0  1  0  0  0  0  0  0  0  0  0
   -1.1400   14.9260   -1.0370 C   0  0  1  0  0  0  0  0  0  0  0  0
   -0.3310   13.8660    1.0490 C   0  0  0  0  0  0  0  0  0  0  0  0
   -3.7590   14.6650   -1.0570 C   0  0  0  0  0  0  0  0  0  0  0  0
   -0.1590   14.0580   -0.2580 C   0  0  0  0  0  0  0  0  0  0  0  0
   -1.2340   14.8870   -2.6490 C   0  0  1  0  0  0  0  0  0  0  0  0
   -3.7460   15.0960   -2.4630 C   0  0  0  0  0  0  0  0  0  0  0  0
   -2.6250   15.1990   -3.1640 C   0  0  0  0  0  0  0  0  0  0  0  0
   -0.4030   15.9640   -3.1350 O   0  0  0  0  0  0  0  0  0  0  0  0
   -0.6720   13.7140   -3.5460 C   0  0  2  0  0  0  0  0  0  0  0  0
    0.2560   12.7840   -3.0110 O   0  0  0  0  0  0  0  0  0  0  0  0
   -0.4360   15.8790   -4.5630 C   0  0  2  0  0  0  0  0  0  0  0  0
   -0.1780   14.3880   -4.8430 C   0  0  1  0  0  0  0  0  0  0  0  0
    0.5390   16.8760   -5.2000 C   0  0  0  0  0  0  0  0  0  0  0  0
    1.1590   14.0180   -5.1630 O   0  0  0  0  0  0  0  0  0  0  0  0
   -0.0570   17.6700   -6.2500 O   0  0  0  0  0  0  0  0  0  0  0  0
   -1.5590   18.2310   -6.1420 P   0  0  1  0  0  0  0  0  0  0  0  0
   -2.5760   17.3010   -6.6590 O   0  0  0  0  0  0  0  0  0  0  0  0
   -1.7570   18.4100   -4.5700 O   0  0  0  0  0  0  0  0  0  0  0  0
   -1.6580   19.7320   -6.6940 O   0  0  0  0  0  0  0  0  0  0  0  0
   -0.9450   20.2770   -8.0130 P   0  0  1  0  0  0  0  0  0  0  0  0
    0.3490   20.9890   -7.8500 O   0  0  0  0  0  0  0  0  0  0  0  0
   -0.5860   18.8660   -8.7160 O   0  0  0  0  0  0  0  0  0  0  0  0
   -2.0720   20.9260   -9.0400 O   0  0  0  0  0  0  0  0  0  0  0  0
   -2.9510   22.0410   -8.7000 C   0  0  0  0  0  0  0  0  0  0  0  0
   -4.1720   22.5810   -9.6520 C   0  0  2  0  0  0  0  0  0  0  0  0
   -4.5640   22.2800  -11.1740 C   0  0  1  0  0  0  0  0  0  0  0  0
   -4.0250   24.0280   -9.6710 O   0  0  0  0  0  0  0  0  0  0  0  0
   -5.8150   21.7730  -11.4810 O   0  0  0  0  0  0  0  0  0  0  0  0
   -4.4490   24.6380  -10.9280 C   0  0  2  0  0  0  0  0  0  0  0  0
   -4.6540   23.5740  -11.9770 C   0  0  2  0  0  0  0  0  0  0  0  0
   -3.4080   25.4530  -11.4580 O   0  0  0  0  0  0  0  0  0  0  0  0
   -5.8430   23.6900  -12.7020 O   0  0  0  0  0  0  0  0  0  0  0  0
  2  1  1  6
  2  3  1  0
  2  4  1  0
  4  5  1  0
  3  6  1  0
  4  7  1  6
  5  8  1  1
  6  8  2  0
  5  9  1  0
  7 10  1  0
  9 11  1  1
 10 11  2  0
  9 12  1  0
  9 13  1  0
 13 14  1  1
 12 15  1  0
 13 16  1  0
 15 16  1  0
 15 17  1  6
 16 18  1  1
 17 19  1  0
 19 20  1  0
 20 21  2  0
 20 22  1  1
 20 23  1  0
 23 24  1  0
 24 25  2  0
 24 26  1  6
 24 27  1  0
 27 28  1  0
 29 28  1  6
 29 30  1  0
 29 31  1  0
 30 32  1  1
 31 33  1  0
 30 34  1  0
 33 34  1  0
 33 35  1  6
 34 36  1  1
M  END
>  <%Rank>  (87) 
85.148515

>  <N_hits>  (87) 
2

>  <submitter_name>  (87) 
nan

>  <original SMILES>  (87) 
nan

>  <∆G_unbound>  (87) 
2.336908

>  <∆G_bound>  (87) 
-9.200389

>  <regarded>  (87) 
mArh-mac-242_0_A,mArh-5cms_B_1_B

>  <ref_pdb>  (87) 
nan

>  <smiles>  (87) 
NC1NC=CC2C1CC=CC21OC(CO[P@@](=O)(O)O[P@@](=O)(O)OCC2OC(O)C(O)C2O)C(O)C1O

>  <submitter_email>  (87) 
nan

>  <disregarded>  (87) 


>  <LE>  (87) 
-0.32048

>  <submitter_institution>  (87) 
nan

>  <ref_mols>  (87) 
mArh-mac-242_0_A,mArh-5cms_B_1_B

>  <N_constrained_atoms>  (87) 
36.0

>  <ref_url>  (87) 
nan

>  <method>  (87) 
nan

>  <comRMSD>  (87) 
1.278135

>  <N_unconstrained_atoms>  (87) 
0.0

>  <∆∆G>  (87) 
-11.537297

>  <runtime>  (87) 
48.580698

>  <generation_date>  (87) 
nan

$$$$
mArh-5cms_P_15_P-mArh-x0711_0_A
     RDKit          3D

 43 47  0  0  0  0  0  0  0  0999 V2000
   -1.6820   18.1580   -6.1050 P   0  0  1  0  0  0  0  0  0  0  0  0
   -0.3740   17.2500   -6.1990 O   0  0  0  0  0  0  0  0  0  0  0  0
    0.7650   17.3930   -5.3670 C   0  0  0  0  0  0  0  0  0  0  0  0
   -2.8410   17.5330   -6.7740 O   0  0  0  0  0  0  0  0  0  0  0  0
   -1.8340   18.3990   -4.5360 O   0  0  0  0  0  0  0  0  0  0  0  0
   -1.2640   19.5480   -6.6970 O   0  0  0  0  0  0  0  0  0  0  0  0
   -0.0610   19.8400   -7.6620 P   0  0  1  0  0  0  0  0  0  0  0  0
    1.2940   19.9390   -7.0730 O   0  0  0  0  0  0  0  0  0  0  0  0
   -0.1620   18.6130   -8.6970 O   0  0  0  0  0  0  0  0  0  0  0  0
   -0.5700   21.1690   -8.4220 O   0  0  0  0  0  0  0  0  0  0  0  0
    0.9950   16.1630   -4.4860 C   0  0  1  0  0  0  0  0  0  0  0  0
   -1.8370   20.9480   -8.9550 C   0  0  0  0  0  0  0  0  0  0  0  0
    0.3130   16.3320   -3.2040 O   0  0  0  0  0  0  0  0  0  0  0  0
    0.4480   14.9240   -5.1490 C   0  0  1  0  0  0  0  0  0  0  0  0
    1.1890   13.7320   -4.8960 O   0  0  0  0  0  0  0  0  0  0  0  0
   -0.9530   14.9160   -4.6340 C   0  0  2  0  0  0  0  0  0  0  0  0
   -0.6570   15.2880   -3.0700 C   0  0  2  0  0  0  0  0  0  0  0  0
   -2.9240   21.9840   -9.2090 C   0  0  1  0  0  0  0  0  0  0  0  0
   -1.3200   13.6080   -4.7710 O   0  0  0  0  0  0  0  0  0  0  0  0
   -2.7150   23.4740   -9.0280 C   0  0  1  0  0  0  0  0  0  0  0  0
   -3.3670   21.7750  -10.5630 O   0  0  0  0  0  0  0  0  0  0  0  0
   -1.6990   15.5890   -2.0180 N   0  0  0  0  0  0  0  0  0  0  0  0
   -1.3130   23.7410   -9.0000 O   0  0  0  0  0  0  0  0  0  0  0  0
   -1.0670   13.4910   -3.2810 S   0  0  0  0  0  0  0  0  0  0  0  0
   -4.1690   22.8640  -10.9570 C   0  0  2  0  0  0  0  0  0  0  0  0
   -3.6350   24.0510  -10.2070 C   0  0  2  0  0  0  0  0  0  0  0  0
   -1.3860   15.7740   -0.6260 C   0  0  1  0  0  0  0  0  0  0  0  0
   -2.5830   14.5530   -1.7250 C   0  0  2  0  0  0  0  0  0  0  0  0
   -5.5100   22.6610  -10.6170 O   0  0  0  0  0  0  0  0  0  0  0  0
   -3.1450   25.0260  -11.1540 O   0  0  0  0  0  0  0  0  0  0  0  0
   -2.6770   13.8800   -2.9000 N   0  0  0  0  0  0  0  0  0  0  0  0
   -0.2700   14.6550   -3.0110 O   0  0  0  0  0  0  0  0  0  0  0  0
   -0.5220   12.2070   -2.9590 O   0  0  0  0  0  0  0  0  0  0  0  0
   -2.6790   15.6660    0.0220 C   0  0  1  0  0  0  0  0  0  0  0  0
   -0.4460   14.6740   -0.3100 N   0  0  0  0  0  0  0  0  0  0  0  0
   -3.6330   15.2600   -1.0350 N   0  0  0  0  0  0  0  0  0  0  0  0
   -4.9590   14.8570   -0.6550 C   0  0  0  0  0  0  0  0  0  0  0  0
   -2.7310   14.8380    1.0970 C   0  0  2  0  0  0  0  0  0  0  0  0
   -0.2640   14.4620    1.1100 C   0  0  0  0  0  0  0  0  0  0  0  0
   -3.6610   15.3870    2.0670 N   0  0  0  0  0  0  0  0  0  0  0  0
   -5.2110   14.5550    0.6550 N   0  0  0  0  0  0  0  0  0  0  0  0
   -5.9360   14.7740   -1.4010 O   0  0  0  0  0  0  0  0  0  0  0  0
   -1.4930   14.6920    1.8110 N   0  0  0  0  0  0  0  0  0  0  0  0
  1  2  1  0
  2  3  1  0
  1  4  2  0
  1  5  1  1
  1  6  1  0
  6  7  1  0
  7  8  2  0
  7  9  1  6
  7 10  1  0
 11  3  1  6
 10 12  1  0
 11 13  1  0
 11 14  1  0
 14 15  1  1
 14 16  1  0
 17 13  1  6
 16 17  1  0
 18 12  1  6
 16 19  1  1
 18 20  1  0
 18 21  1  0
 17 22  1  0
 20 23  1  6
 24 19  1  0
 21 25  1  0
 20 26  1  0
 25 26  1  0
 22 27  1  0
 22 28  1  0
 25 29  1  1
 26 30  1  6
 24 31  1  0
 28 31  1  6
 24 32  2  0
 24 33  2  0
 27 34  1  0
 27 35  1  1
 28 36  1  0
 34 36  1  6
 36 37  1  0
 34 38  1  0
 35 39  1  0
 38 40  1  1
 37 41  1  0
 37 42  2  0
 38 43  1  0
 39 43  1  0
M  END
>  <%Rank>  (88) 
86.138614

>  <N_hits>  (88) 
2

>  <submitter_name>  (88) 
nan

>  <original SMILES>  (88) 
nan

>  <∆G_unbound>  (88) 
8.582014

>  <∆G_bound>  (88) 
7.364516

>  <regarded>  (88) 
mArh-5cms_P_15_P,mArh-x0711_0_A

>  <ref_pdb>  (88) 
nan

>  <smiles>  (88) 
NC(=O)N1C2C(N)NCNC2N2C3OC(CO[P@@](=O)(O)O[P@@](=O)(O)OCC4OC(O)C(O)C4O)C(O)C3OS(=O)(=O)NC12

>  <submitter_email>  (88) 
nan

>  <disregarded>  (88) 


>  <LE>  (88) 
-0.028314

>  <submitter_institution>  (88) 
nan

>  <ref_mols>  (88) 
mArh-5cms_P_15_P,mArh-x0711_0_A

>  <N_constrained_atoms>  (88) 
43.0

>  <ref_url>  (88) 
nan

>  <method>  (88) 
nan

>  <comRMSD>  (88) 
1.208366

>  <N_unconstrained_atoms>  (88) 
0.0

>  <∆∆G>  (88) 
-1.217498

>  <runtime>  (88) 
39.437441

>  <generation_date>  (88) 
nan

$$$$
mArh-x0524_0_A-mArh-x0711_0_A
     RDKit          3D

 33 35  0  0  0  0  0  0  0  0999 V2000
   -0.2270    8.5040   -7.8740 N   0  0  0  0  0  0  0  0  0  0  0  0
   -0.7970    9.5410   -7.1720 C   0  0  0  0  0  0  0  0  0  0  0  0
   -2.1130    9.2140   -6.4800 C   0  0  0  0  0  0  0  0  0  0  0  0
    0.7000    8.5830   -8.9300 C   0  0  0  0  0  0  0  0  0  0  0  0
   -0.2490   10.7170   -7.1170 N   0  0  0  0  0  0  0  0  0  0  0  0
    1.8100    7.7360   -8.9060 C   0  0  0  0  0  0  0  0  0  0  0  0
    0.5830    9.4630  -10.0070 C   0  0  0  0  0  0  0  0  0  0  0  0
   -0.8740   11.8130   -6.3820 C   0  0  0  0  0  0  0  0  0  0  0  0
    2.7730    7.7690   -9.9230 C   0  0  0  0  0  0  0  0  0  0  0  0
    1.5420    9.4940  -11.0260 C   0  0  0  0  0  0  0  0  0  0  0  0
   -0.5900   11.7080   -4.8810 C   0  0  0  0  0  0  0  0  0  0  0  0
    2.6500    8.6520  -11.0020 C   0  0  0  0  0  0  0  0  0  0  0  0
    3.6300    8.6600  -12.0040 N   0  0  0  0  0  0  0  0  0  0  0  0
   -1.4410   12.6220   -3.9950 C   0  0  0  0  0  0  0  0  0  0  0  0
   -0.5400   13.8690   -3.0760 S   0  0  0  0  0  0  0  0  0  0  0  0
    3.8770    9.5480  -13.0630 C   0  0  0  0  0  0  0  0  0  0  0  0
   -1.6750   15.0750   -2.8070 N   0  0  0  0  0  0  0  0  0  0  0  0
    0.4470   14.4500   -3.9630 O   0  0  0  0  0  0  0  0  0  0  0  0
   -0.1200   13.2860   -1.8180 O   0  0  0  0  0  0  0  0  0  0  0  0
    3.1890   10.7530  -13.2400 C   0  0  0  0  0  0  0  0  0  0  0  0
    4.8660    9.2150  -13.9930 C   0  0  0  0  0  0  0  0  0  0  0  0
    3.4800   11.5970  -14.3100 C   0  0  0  0  0  0  0  0  0  0  0  0
    5.1630   10.0580  -15.0660 C   0  0  0  0  0  0  0  0  0  0  0  0
   -2.8350   14.9490   -1.9840 C   0  0  0  0  0  0  0  0  0  0  0  0
    4.4700   11.2510  -15.2220 C   0  0  0  0  0  0  0  0  0  0  0  0
   -4.0800   15.1800   -2.5580 C   0  0  0  0  0  0  0  0  0  0  0  0
   -2.7460   14.6160   -0.6280 C   0  0  0  0  0  0  0  0  0  0  0  0
   -5.2450   15.0830   -1.8000 C   0  0  0  0  0  0  0  0  0  0  0  0
   -3.9150   14.5170    0.1430 C   0  0  0  0  0  0  0  0  0  0  0  0
   -5.1710   14.7510   -0.4460 C   0  0  0  0  0  0  0  0  0  0  0  0
   -6.3920   14.6370    0.3950 C   0  0  0  0  0  0  0  0  0  0  0  0
   -6.2240   14.6300    1.7470 N   0  0  0  0  0  0  0  0  0  0  0  0
   -7.5120   14.5600   -0.1020 O   0  0  0  0  0  0  0  0  0  0  0  0
  1  2  1  0
  2  3  1  0
  1  4  1  0
  2  5  2  3
  4  6  2  0
  4  7  1  0
  5  8  1  0
  6  9  1  0
  7 10  2  0
  8 11  1  0
  9 12  2  0
 10 12  1  0
 12 13  1  0
 11 14  1  0
 14 15  1  0
 13 16  1  0
 15 17  1  0
 15 18  2  0
 15 19  2  0
 16 20  2  0
 16 21  1  0
 20 22  1  0
 21 23  2  0
 17 24  1  0
 22 25  2  0
 23 25  1  0
 24 26  2  0
 24 27  1  0
 26 28  1  0
 27 29  2  0
 28 30  2  0
 29 30  1  0
 30 31  1  0
 31 32  1  0
 31 33  2  0
M  END
>  <%Rank>  (89) 
87.128713

>  <N_hits>  (89) 
2

>  <submitter_name>  (89) 
nan

>  <original SMILES>  (89) 
nan

>  <∆G_unbound>  (89) 
1.181688

>  <∆G_bound>  (89) 
-7.407259

>  <regarded>  (89) 
mArh-x0524_0_A,mArh-x0711_0_A

>  <ref_pdb>  (89) 
nan

>  <smiles>  (89) 
CC(=NCCCS(=O)(=O)Nc1ccc(C(N)=O)cc1)Nc1ccc(Nc2ccccc2)cc1

>  <submitter_email>  (89) 
nan

>  <disregarded>  (89) 


>  <LE>  (89) 
-0.260271

>  <submitter_institution>  (89) 
nan

>  <ref_mols>  (89) 
mArh-x0524_0_A,mArh-x0711_0_A

>  <N_constrained_atoms>  (89) 
31.0

>  <ref_url>  (89) 
nan

>  <method>  (89) 
nan

>  <comRMSD>  (89) 
1.233988

>  <N_unconstrained_atoms>  (89) 
2.0

>  <∆∆G>  (89) 
-8.588946

>  <runtime>  (89) 
53.725007

>  <generation_date>  (89) 
nan

$$$$
mArh-x0910_2_B-mArh-x0681_0_A
     RDKit          3D

 25 27  0  0  0  0  0  0  0  0999 V2000
  -13.3770   21.8470   -3.7350 N   0  0  0  0  0  0  0  0  0  0  0  0
  -12.9950   22.2090   -2.5080 C   0  0  0  0  0  0  0  0  0  0  0  0
  -12.2480   21.4130   -1.7120 N   0  0  0  0  0  0  0  0  0  0  0  0
  -13.2780   23.4240   -1.8160 N   0  0  0  0  0  0  0  0  0  0  0  0
  -11.7860   20.0600   -2.0880 C   0  0  0  0  0  0  0  0  0  0  0  0
  -11.9950   22.0300   -0.5230 N   0  0  0  0  0  0  0  0  0  0  0  0
  -12.6280   23.2090   -0.6320 C   0  0  0  0  0  0  0  0  0  0  0  0
  -12.1030   18.8840   -1.1240 C   0  0  0  0  0  0  0  0  0  0  0  0
  -10.8720   18.1140   -0.5660 C   0  0  0  0  0  0  0  0  0  0  0  0
  -10.0800   17.1660   -1.5190 C   0  0  0  0  0  0  0  0  0  0  0  0
   -8.7410   16.6800   -0.8930 C   0  0  0  0  0  0  0  0  0  0  0  0
   -7.9590   15.4550   -1.4600 C   0  0  0  0  0  0  0  0  0  0  0  0
   -6.4940   15.8640   -1.7520 C   0  0  0  0  0  0  0  0  0  0  0  0
   -5.5100   14.8740   -2.2100 N   0  0  0  0  0  0  0  0  0  0  0  0
   -4.1440   14.9170   -1.8830 C   0  0  0  0  0  0  0  0  0  0  0  0
   -3.2520   15.3570   -2.6130 O   0  0  0  0  0  0  0  0  0  0  0  0
   -3.8130   14.3120   -0.5360 C   0  0  2  0  0  0  0  0  0  0  0  0
   -4.7560   13.3080   -0.3500 C   0  0  0  0  0  0  0  0  0  0  0  0
   -3.7920   15.4180    0.5470 C   0  0  0  0  0  0  0  0  0  0  0  0
   -5.6830   13.3570    0.6720 N   0  0  0  0  0  0  0  0  0  0  0  0
   -4.3480   15.0520    1.7640 C   0  0  0  0  0  0  0  0  0  0  0  0
   -4.9060   12.2220   -1.1000 N   0  0  0  0  0  0  0  0  0  0  0  0
   -5.7270   14.4310    1.6070 C   0  0  0  0  0  0  0  0  0  0  0  0
   -6.4870   12.2730    0.6190 C   0  0  0  0  0  0  0  0  0  0  0  0
   -5.9590   11.5300   -0.5680 C   0  0  0  0  0  0  0  0  0  0  0  0
  1  2  1  0
  2  3  1  0
  2  4  2  0
  3  5  1  0
  3  6  1  0
  4  7  1  0
  6  7  2  0
  5  8  1  0
  8  9  1  0
  9 10  1  0
 10 11  1  0
 11 12  1  0
 12 13  1  0
 13 14  1  0
 14 15  1  0
 15 16  2  0
 17 15  1  6
 17 18  1  0
 17 19  1  0
 18 20  1  0
 19 21  1  0
 18 22  2  0
 20 23  1  0
 21 23  1  0
 20 24  1  0
 22 25  1  0
 24 25  2  0
M  END
>  <%Rank>  (90) 
88.118812

>  <N_hits>  (90) 
2

>  <submitter_name>  (90) 
nan

>  <original SMILES>  (90) 
nan

>  <∆G_unbound>  (90) 
0.634496

>  <∆G_bound>  (90) 
-6.472359

>  <regarded>  (90) 
mArh-x0910_2_B,mArh-x0681_0_A

>  <ref_pdb>  (90) 
nan

>  <smiles>  (90) 
Nc1ncnn1CCCCCCCNC(=O)C1CCCn2ccnc21

>  <submitter_email>  (90) 
nan

>  <disregarded>  (90) 


>  <LE>  (90) 
-0.284274

>  <submitter_institution>  (90) 
nan

>  <ref_mols>  (90) 
mArh-x0910_2_B,mArh-x0681_0_A

>  <N_constrained_atoms>  (90) 
18.0

>  <ref_url>  (90) 
nan

>  <method>  (90) 
nan

>  <comRMSD>  (90) 
0.962412

>  <N_unconstrained_atoms>  (90) 
7.0

>  <∆∆G>  (90) 
-7.106855

>  <runtime>  (90) 
23.555245

>  <generation_date>  (90) 
nan

$$$$
mArh-x0962_2_B-mArh-x0371_0_A
     RDKit          3D

 24 27  0  0  0  0  0  0  0  0999 V2000
  -11.4220   16.0920    2.9330 N   0  0  0  0  0  0  0  0  0  0  0  0
  -10.0320   15.6820    2.6750 C   0  0  1  0  0  0  0  0  0  0  0  0
   -8.8510   16.2940    3.4850 C   0  0  2  0  0  0  0  0  0  0  0  0
   -9.5910   14.4490    3.2590 C   0  0  0  0  0  0  0  0  0  0  0  0
   -7.7180   15.4120    3.0260 N   0  0  0  0  0  0  0  0  0  0  0  0
   -8.8730   14.6230    4.3960 N   0  0  0  0  0  0  0  0  0  0  0  0
   -9.6300   13.1150    3.0440 C   0  0  0  0  0  0  0  0  0  0  0  0
   -8.8600   16.1620    5.0040 C   0  0  0  0  0  0  0  0  0  0  0  0
   -7.9710   14.5920    1.8160 C   0  0  0  0  0  0  0  0  0  0  0  0
   -8.4870   13.4190    4.8390 C   0  0  0  0  0  0  0  0  0  0  0  0
   -8.9280   12.4750    4.0460 N   0  0  0  0  0  0  0  0  0  0  0  0
   -7.8700   15.3550    5.5390 O   0  0  0  0  0  0  0  0  0  0  0  0
   -9.6220   16.6600    6.0330 C   0  0  0  0  0  0  0  0  0  0  0  0
   -6.8310   14.7130    0.8740 C   0  0  0  0  0  0  0  0  0  0  0  0
   -9.0180   16.0790    7.3090 C   0  0  0  0  0  0  0  0  0  0  0  0
   -7.9700   15.3080    6.8890 C   0  0  0  0  0  0  0  0  0  0  0  0
   -5.5590   14.6190    1.3880 N   0  0  0  0  0  0  0  0  0  0  0  0
   -6.8540   14.9190   -0.4440 N   0  0  0  0  0  0  0  0  0  0  0  0
   -5.5340   14.9720   -0.8140 C   0  0  0  0  0  0  0  0  0  0  0  0
   -4.6690   14.7740    0.3890 C   0  0  0  0  0  0  0  0  0  0  0  0
   -3.2960   14.7740    0.3350 C   0  0  0  0  0  0  0  0  0  0  0  0
   -4.9100   15.1660   -2.0420 C   0  0  0  0  0  0  0  0  0  0  0  0
   -2.7440   14.9700   -0.9320 C   0  0  0  0  0  0  0  0  0  0  0  0
   -3.5190   15.1640   -2.0940 C   0  0  0  0  0  0  0  0  0  0  0  0
  2  1  1  1
  2  3  1  0
  2  4  1  0
  3  5  1  6
  4  6  1  0
  4  7  2  0
  3  8  1  0
  5  9  1  0
  6 10  1  0
  7 11  1  0
 10 11  2  0
  8 12  1  0
  8 13  2  0
  9 14  1  0
 13 15  1  0
 12 16  1  0
 15 16  2  0
 14 17  1  0
 14 18  2  0
 18 19  1  0
 17 20  1  0
 19 20  2  0
 20 21  1  0
 19 22  1  0
 21 23  2  0
 22 24  2  0
 23 24  1  0
M  END
>  <%Rank>  (91) 
89.108911

>  <N_hits>  (91) 
2

>  <submitter_name>  (91) 
nan

>  <original SMILES>  (91) 
nan

>  <∆G_unbound>  (91) 
3.581979

>  <∆G_bound>  (91) 
3.503319

>  <regarded>  (91) 
mArh-x0962_2_B,mArh-x0371_0_A

>  <ref_pdb>  (91) 
nan

>  <smiles>  (91) 
NC(c1cnc[nH]1)C(NCc1nc2ccccc2[nH]1)c1ccco1

>  <submitter_email>  (91) 
nan

>  <disregarded>  (91) 


>  <LE>  (91) 
-0.003278

>  <submitter_institution>  (91) 
nan

>  <ref_mols>  (91) 
mArh-x0962_2_B,mArh-x0371_0_A

>  <N_constrained_atoms>  (91) 
24.0

>  <ref_url>  (91) 
nan

>  <method>  (91) 
nan

>  <comRMSD>  (91) 
1.124678

>  <N_unconstrained_atoms>  (91) 
0.0

>  <∆∆G>  (91) 
-0.078661

>  <runtime>  (91) 
20.312943

>  <generation_date>  (91) 
nan

$$$$
mArh-4j4z_0_A-mArh-x0805_0_A
     RDKit          3D

 32 34  0  0  0  0  0  0  0  0999 V2000
   -0.8290   16.9470   -3.5520 O   0  0  0  0  0  0  0  0  0  0  0  0
   -1.1920   16.7820   -4.9380 S   0  0  0  0  0  0  0  0  0  0  0  0
   -0.2210   16.8710   -5.9990 O   0  0  0  0  0  0  0  0  0  0  0  0
   -2.2610   17.9620   -5.1580 O   0  0  0  0  0  0  0  0  0  0  0  0
   -2.2800   15.3480   -5.1780 C   0  0  0  0  0  0  0  0  0  0  0  0
   -1.5560   14.0780   -5.7290 C   0  0  0  0  0  0  0  0  0  0  0  0
   -1.4030   12.9160   -4.7050 C   0  0  0  0  0  0  0  0  0  0  0  0
   -2.8590   12.5880   -4.2570 C   0  0  0  0  0  0  0  0  0  0  0  0
   -0.8400   11.5330   -5.1930 C   0  0  0  0  0  0  0  0  0  0  0  0
   -0.4210   13.5880   -3.5710 C   0  0  1  0  0  0  0  0  0  0  0  0
   -3.4600   11.3200   -4.8690 C   0  0  0  0  0  0  0  0  0  0  0  0
   -1.2920   10.3480   -4.2940 C   0  0  0  0  0  0  0  0  0  0  0  0
   -1.6340   13.7550   -2.5770 C   0  0  0  0  0  0  0  0  0  0  0  0
    0.7350   12.5570   -3.3230 C   0  0  2  0  0  0  0  0  0  0  0  0
    0.2360   14.9960   -3.8910 C   0  0  0  0  0  0  0  0  0  0  0  0
    0.5820   11.8270   -2.0630 C   0  0  0  0  0  0  0  0  0  0  0  0
   -2.7240   10.1090   -4.5420 N   0  0  0  0  0  0  0  0  0  0  0  0
   -2.5940   12.7240   -2.5530 C   0  0  0  0  0  0  0  0  0  0  0  0
   -1.8830   14.8440   -1.7160 C   0  0  0  0  0  0  0  0  0  0  0  0
    2.1830   13.0690   -3.3830 C   0  0  0  0  0  0  0  0  0  0  0  0
    1.7040   15.1440   -4.2790 C   0  0  0  0  0  0  0  0  0  0  0  0
   -3.4270    9.3870   -3.4790 C   0  0  0  0  0  0  0  0  0  0  0  0
    0.4960   10.4870   -2.1870 O   0  0  0  0  0  0  0  0  0  0  0  0
    0.5100   12.3830   -0.9930 O   0  0  0  0  0  0  0  0  0  0  0  0
   -3.0250   14.8760   -0.8990 C   0  0  0  0  0  0  0  0  0  0  0  0
   -3.7250   12.7540   -1.7520 C   0  0  0  0  0  0  0  0  0  0  0  0
    2.3630   13.9160   -4.4920 O   0  0  0  0  0  0  0  0  0  0  0  0
   -3.7580    7.9300   -3.8110 C   0  0  0  0  0  0  0  0  0  0  0  0
   -3.1490   15.9770   -0.1120 O   0  0  0  0  0  0  0  0  0  0  0  0
   -3.9430   13.8340   -0.9230 C   0  0  0  0  0  0  0  0  0  0  0  0
   -3.7580    7.1710   -2.6060 O   0  0  0  0  0  0  0  0  0  0  0  0
   -4.0590   15.8200    0.9720 C   0  0  0  0  0  0  0  0  0  0  0  0
  1  2  2  0
  2  3  2  0
  2  4  1  0
  2  5  1  0
  5  6  1  0
  7  6  1  0
  7  8  1  0
  7  9  1  0
  7 10  1  0
  8 11  1  0
  9 12  1  0
 10 13  1  1
 10 14  1  0
 10 15  1  0
 14 16  1  1
 11 17  1  0
 12 17  1  0
 13 18  2  0
 13 19  1  0
 14 20  1  0
 15 21  1  0
 17 22  1  0
 16 23  1  0
 16 24  2  0
 19 25  2  0
 18 26  1  0
 20 27  1  0
 21 27  1  0
 22 28  1  0
 25 29  1  0
 25 30  1  0
 26 30  2  0
 28 31  1  0
 29 32  1  0
M  END
>  <%Rank>  (92) 
90.09901

>  <N_hits>  (92) 
2

>  <submitter_name>  (92) 
nan

>  <original SMILES>  (92) 
nan

>  <∆G_unbound>  (92) 
2.652746

>  <∆G_bound>  (92) 
-1.09744

>  <regarded>  (92) 
mArh-4j4z_0_A,mArh-x0805_0_A

>  <ref_pdb>  (92) 
nan

>  <smiles>  (92) 
COc1cccc(C2(C3(CCS(=O)(=O)O)CCN(CCO)CC3)CCOCC2C(=O)O)c1

>  <submitter_email>  (92) 
nan

>  <disregarded>  (92) 


>  <LE>  (92) 
-0.117193

>  <submitter_institution>  (92) 
nan

>  <ref_mols>  (92) 
mArh-4j4z_0_A,mArh-x0805_0_A

>  <N_constrained_atoms>  (92) 
31.0

>  <ref_url>  (92) 
nan

>  <method>  (92) 
nan

>  <comRMSD>  (92) 
1.275061

>  <N_unconstrained_atoms>  (92) 
1.0

>  <∆∆G>  (92) 
-3.750185

>  <runtime>  (92) 
36.937564

>  <generation_date>  (92) 
nan

$$$$
mArh-x0587_0_A-mArh-x0926_0_A
     RDKit          3D

 19 20  0  0  0  0  0  0  0  0999 V2000
   -8.1300   14.6950    3.9750 N   0  0  0  0  0  0  0  0  0  0  0  0
   -8.5000   14.6860    2.6580 C   0  0  0  0  0  0  0  0  0  0  0  0
   -9.6390   14.8580    2.2560 O   0  0  0  0  0  0  0  0  0  0  0  0
   -7.4680   14.4700    1.5550 C   0  0  2  0  0  0  0  0  0  0  0  0
   -7.9220   14.7890    0.1480 C   0  0  0  0  0  0  0  0  0  0  0  0
   -6.8030   13.0930    1.4960 C   0  0  0  0  0  0  0  0  0  0  0  0
   -6.6910   14.8780   -0.6330 N   0  0  0  0  0  0  0  0  0  0  0  0
   -5.8240   12.9470    0.3880 N   0  0  0  0  0  0  0  0  0  0  0  0
   -6.2750   13.5050   -0.9120 C   0  0  2  0  0  0  0  0  0  0  0  0
   -5.8180   15.3070    0.2790 N   0  0  0  0  0  0  0  0  0  0  0  0
   -5.3260   13.3880   -2.1490 C   0  0  0  0  0  0  0  0  0  0  0  0
   -4.6170   15.6670    0.0150 C   0  0  0  0  0  0  0  0  0  0  0  0
   -4.0740   13.0310   -1.7690 F   0  0  0  0  0  0  0  0  0  0  0  0
   -5.2090   14.5540   -2.8390 F   0  0  0  0  0  0  0  0  0  0  0  0
   -3.8270   16.0610    1.0250 C   0  0  0  0  0  0  0  0  0  0  0  0
   -4.1340   15.6450   -1.2780 N   0  0  0  0  0  0  0  0  0  0  0  0
   -2.9370   15.0400   -1.4670 N   0  0  0  0  0  0  0  0  0  0  0  0
   -2.7020   15.0100    1.0720 C   0  0  0  0  0  0  0  0  0  0  0  0
   -2.3290   14.5610   -0.3450 C   0  0  0  0  0  0  0  0  0  0  0  0
  1  2  1  0
  2  3  2  0
  4  2  1  1
  4  5  1  0
  4  6  1  0
  5  7  1  0
  6  8  1  0
  7  9  1  0
  8  9  1  0
  7 10  1  0
  9 11  1  6
 10 12  2  3
 11 13  1  0
 11 14  1  0
 12 15  1  0
 12 16  1  0
 16 17  1  0
 15 18  1  0
 17 19  1  0
 18 19  2  0
M  END
>  <%Rank>  (93) 
91.089109

>  <N_hits>  (93) 
2

>  <submitter_name>  (93) 
nan

>  <original SMILES>  (93) 
nan

>  <∆G_unbound>  (93) 
1.217886

>  <∆G_bound>  (93) 
-0.346805

>  <regarded>  (93) 
mArh-x0587_0_A,mArh-x0926_0_A

>  <ref_pdb>  (93) 
nan

>  <smiles>  (93) 
NC(=O)C1CNC(C(F)F)N(N=C2CC=CNN2)C1

>  <submitter_email>  (93) 
nan

>  <disregarded>  (93) 


>  <LE>  (93) 
-0.082352

>  <submitter_institution>  (93) 
nan

>  <ref_mols>  (93) 
mArh-x0587_0_A,mArh-x0926_0_A

>  <N_constrained_atoms>  (93) 
19.0

>  <ref_url>  (93) 
nan

>  <method>  (93) 
nan

>  <comRMSD>  (93) 
1.097432

>  <N_unconstrained_atoms>  (93) 
0.0

>  <∆∆G>  (93) 
-1.564691

>  <runtime>  (93) 
21.846702

>  <generation_date>  (93) 
nan

$$$$
mArh-3vfq_B_0_A-mArh-6woj_B_0_B
     RDKit          3D

 69 77  0  0  0  0  0  0  0  0999 V2000
   -3.7240   15.6890   -6.2420 P   0  0  1  0  0  0  0  0  0  0  0  0
   -2.6540   14.9470   -5.1220 O   0  0  0  0  0  0  0  0  0  0  0  0
   -3.0900   15.2790   -3.8460 C   0  0  0  0  0  0  0  0  0  0  0  0
   -3.5290   14.8620   -7.5130 O   0  0  0  0  0  0  0  0  0  0  0  0
   -5.2320   15.1690   -5.8010 O   0  0  0  0  0  0  0  0  0  0  0  0
   -3.4260   17.2290   -6.5760 O   0  0  0  0  0  0  0  0  0  0  0  0
   -2.2240   18.3390   -6.6240 P   0  0  0  0  0  0  0  0  0  0  0  0
   -0.8990   18.3080   -5.4060 C   0  0  2  0  0  0  0  0  0  0  0  0
   -1.2760   18.1880   -8.0000 O   0  0  0  0  0  0  0  0  0  0  0  0
   -2.8410   20.0660   -6.9550 O   0  0  0  0  0  0  0  0  0  0  0  0
   -4.3710   14.5790   -3.4150 C   0  0  2  0  0  0  0  0  0  0  0  0
   -4.1560   20.3570   -7.0020 C   0  0  0  0  0  0  0  0  0  0  0  0
   -0.7870   17.0120   -5.0330 O   0  0  0  0  0  0  0  0  0  0  0  0
   -1.3900   19.0240   -4.3230 O   0  0  0  0  0  0  0  0  0  0  0  0
    0.2140   18.8930   -5.9370 O   0  0  0  0  0  0  0  0  0  0  0  0
   -4.4370   14.4470   -2.0610 O   0  0  0  0  0  0  0  0  0  0  0  0
   -4.5850   13.2190   -3.9990 C   0  0  1  0  0  0  0  0  0  0  0  0
   -3.3980   12.4920   -4.2010 O   0  0  0  0  0  0  0  0  0  0  0  0
    0.4490   16.4110   -4.8990 C   0  0  0  0  0  0  0  0  0  0  0  0
    0.0100   19.7580   -7.4010 P   0  0  1  0  0  0  0  0  0  0  0  0
   -5.4690   12.5820   -2.9770 C   0  0  2  0  0  0  0  0  0  0  0  0
   -4.8860   13.2010   -1.7400 C   0  0  2  0  0  0  0  0  0  0  0  0
   -4.7730   21.5090   -7.8490 C   0  0  1  0  0  0  0  0  0  0  0  0
   -5.3620   11.1850   -2.9380 O   0  0  0  0  0  0  0  0  0  0  0  0
    1.0710   20.8360   -7.5050 O   0  0  0  0  0  0  0  0  0  0  0  0
    0.3370   18.6880   -8.6780 O   0  0  0  0  0  0  0  0  0  0  0  0
   -1.5120   20.3900   -7.5610 O   0  0  0  0  0  0  0  0  0  0  0  0
   -4.2940   22.2240   -9.1030 C   0  0  2  0  0  0  0  0  0  0  0  0
   -6.1920   21.1740   -8.2460 C   0  0  1  0  0  0  0  0  0  0  0  0
   -5.9020   13.3590   -0.7150 N   0  0  0  0  0  0  0  0  0  0  0  0
    0.3270   15.0160   -4.3160 C   0  0  2  0  0  0  0  0  0  0  0  0
   -3.5690   23.3980   -9.0030 O   0  0  0  0  0  0  0  0  0  0  0  0
   -6.9230   20.8510   -7.1570 O   0  0  0  0  0  0  0  0  0  0  0  0
   -1.6720   21.5540   -8.2020 C   0  0  0  0  0  0  0  0  0  0  0  0
   -5.5440   22.7840   -9.7870 C   0  0  2  0  0  0  0  0  0  0  0  0
   -5.7470   14.0540    0.4050 C   0  0  0  0  0  0  0  0  0  0  0  0
   -7.1330   12.8240   -0.7530 C   0  0  0  0  0  0  0  0  0  0  0  0
    1.2550   14.7880   -3.3290 O   0  0  0  0  0  0  0  0  0  0  0  0
    0.4010   13.8320   -5.2070 C   0  0  1  0  0  0  0  0  0  0  0  0
   -6.6310   22.5290   -8.7890 C   0  0  0  0  0  0  0  0  0  0  0  0
   -5.8550   22.2360  -11.0260 O   0  0  0  0  0  0  0  0  0  0  0  0
    1.3180   13.8450   -6.1920 O   0  0  0  0  0  0  0  0  0  0  0  0
   -6.8920   13.9620    1.1150 C   0  0  0  0  0  0  0  0  0  0  0  0
   -4.7120   14.7640    0.8860 N   0  0  0  0  0  0  0  0  0  0  0  0
   -7.7480   13.2050    0.3930 N   0  0  0  0  0  0  0  0  0  0  0  0
    0.8460   12.7140   -4.2640 C   0  0  1  0  0  0  0  0  0  0  0  0
    0.9890   13.4610   -2.9740 C   0  0  2  0  0  0  0  0  0  0  0  0
   -3.1380   23.6060   -7.7400 C   0  0  2  0  0  0  0  0  0  0  0  0
   -2.1820   22.5940   -7.2940 C   0  0  1  0  0  0  0  0  0  0  0  0
   -0.0360   11.6620   -4.2410 O   0  0  0  0  0  0  0  0  0  0  0  0
   -7.0420   14.5730    2.3460 C   0  0  0  0  0  0  0  0  0  0  0  0
   -4.8480   15.3530    2.0660 C   0  0  0  0  0  0  0  0  0  0  0  0
   -0.1540   13.3690   -2.1050 N   0  0  0  0  0  0  0  0  0  0  0  0
   -4.1970   23.6610   -6.6170 C   0  0  1  0  0  0  0  0  0  0  0  0
   -2.7780   21.9600   -6.1930 O   0  0  0  0  0  0  0  0  0  0  0  0
   -8.2150   14.4920    3.1100 N   0  0  0  0  0  0  0  0  0  0  0  0
   -5.4970   23.9860   -7.0010 O   0  0  0  0  0  0  0  0  0  0  0  0
   -5.9750   15.2580    2.7740 N   0  0  0  0  0  0  0  0  0  0  0  0
   -0.2980   13.9520   -0.9310 C   0  0  0  0  0  0  0  0  0  0  0  0
   -1.2980   12.6850   -2.2900 C   0  0  0  0  0  0  0  0  0  0  0  0
   -4.1480   22.1470   -6.3770 C   0  0  1  0  0  0  0  0  0  0  0  0
   -4.9390   21.6810   -5.3400 O   0  0  0  0  0  0  0  0  0  0  0  0
   -1.5010   13.6550   -0.3440 C   0  0  0  0  0  0  0  0  0  0  0  0
    0.5500   14.7510   -0.2870 N   0  0  0  0  0  0  0  0  0  0  0  0
   -2.1120   12.8610   -1.2300 N   0  0  0  0  0  0  0  0  0  0  0  0
   -1.8540   14.1490    0.9050 C   0  0  0  0  0  0  0  0  0  0  0  0
    0.2160   15.2280    0.8950 C   0  0  0  0  0  0  0  0  0  0  0  0
   -3.0800   13.8430    1.5320 N   0  0  0  0  0  0  0  0  0  0  0  0
   -0.9710   14.9340    1.5070 N   0  0  0  0  0  0  0  0  0  0  0  0
  1  2  1  0
  2  3  1  0
  1  4  2  0
  1  5  1  1
  1  6  1  0
  6  7  1  0
  7  8  1  0
  7  9  1  0
  7 10  1  0
 11  3  1  1
 10 12  1  0
  8 13  1  0
  8 14  1  1
  8 15  1  0
 11 16  1  0
 11 17  1  0
 17 18  1  1
 13 19  1  0
 15 20  1  0
 17 21  1  0
 16 22  1  0
 21 22  1  0
 23 12  1  6
 21 24  1  1
 20 25  2  0
 20 26  1  6
 20 27  1  0
 23 28  1  0
 23 29  1  0
 22 30  1  1
 31 19  1  6
 28 32  1  1
 29 33  1  1
 27 34  1  0
 28 35  1  0
 30 36  1  0
 30 37  1  0
 31 38  1  0
 31 39  1  0
 29 40  1  0
 35 40  1  0
 35 41  1  6
 39 42  1  6
 36 43  2  0
 36 44  1  0
 37 45  2  0
 43 45  1  0
 39 46  1  0
 38 47  1  0
 46 47  1  0
 48 32  1  6
 49 34  1  6
 48 49  1  0
 46 50  1  1
 43 51  1  0
 44 52  2  0
 47 53  1  6
 48 54  1  0
 49 55  1  0
 51 56  1  0
 54 57  1  6
 51 58  2  0
 52 58  1  0
 53 59  1  0
 53 60  1  0
 54 61  1  0
 55 61  1  0
 61 62  1  1
 59 63  2  0
 59 64  1  0
 60 65  2  0
 63 65  1  0
 63 66  1  0
 64 67  2  0
 66 68  1  0
 66 69  2  0
 67 69  1  0
M  END
>  <%Rank>  (94) 
92.079208

>  <N_hits>  (94) 
2

>  <submitter_name>  (94) 
nan

>  <original SMILES>  (94) 
nan

>  <∆G_unbound>  (94) 
15.016817

>  <∆G_bound>  (94) 
14.974817

>  <regarded>  (94) 
mArh-3vfq_B_0_A,mArh-6woj_B_0_B

>  <ref_pdb>  (94) 
nan

>  <smiles>  (94) 
Nc1ncnc2c1ncn2C1OC(COC2(O)O[P@@](=O)(O)OCC3OC(O)C(O)C3OC3C(O)CC(O)C3CO[PH]2(O)O[P@@](=O)(O)OCC2OC(n3cnc4c(N)ncnc43)C(O)C2O)C(O)C1O

>  <submitter_email>  (94) 
nan

>  <disregarded>  (94) 


>  <LE>  (94) 
-0.000609

>  <submitter_institution>  (94) 
nan

>  <ref_mols>  (94) 
mArh-3vfq_B_0_A,mArh-6woj_B_0_B

>  <N_constrained_atoms>  (94) 
66.0

>  <ref_url>  (94) 
nan

>  <method>  (94) 
nan

>  <comRMSD>  (94) 
1.560501

>  <N_unconstrained_atoms>  (94) 
3.0

>  <∆∆G>  (94) 
-0.042001

>  <runtime>  (94) 
129.775805

>  <generation_date>  (94) 
nan

$$$$
mArh-x0282_0_A-mArh-4j4z_0_A
     RDKit          3D

 31 33  0  0  0  0  0  0  0  0999 V2000
   -7.6280   14.4440    1.1480 C   0  0  0  0  0  0  0  0  0  0  0  0
   -8.4360   14.6350   -0.0030 O   0  0  0  0  0  0  0  0  0  0  0  0
   -6.1360   14.3380    0.7960 C   0  0  0  0  0  0  0  0  0  0  0  0
   -5.2170   14.9320    1.8120 C   0  0  0  0  0  0  0  0  0  0  0  0
   -5.7250   14.9210   -0.5520 C   0  0  0  0  0  0  0  0  0  0  0  0
   -3.9230   14.1780    1.7020 C   0  0  0  0  0  0  0  0  0  0  0  0
   -4.2390   14.6220   -0.8400 C   0  0  0  0  0  0  0  0  0  0  0  0
   -3.4200   14.2920    0.3430 N   0  0  0  0  0  0  0  0  0  0  0  0
   -2.0770   14.4830    0.2620 C   0  0  0  0  0  0  0  0  0  0  0  0
   -1.5240   14.6740   -0.9600 N   0  0  0  0  0  0  0  0  0  0  0  0
   -1.3820   14.4740    1.4150 N   0  0  0  0  0  0  0  0  0  0  0  0
   -0.1960   14.8800   -1.0330 C   0  0  0  0  0  0  0  0  0  0  0  0
   -0.0800   14.6730    1.2870 C   0  0  0  0  0  0  0  0  0  0  0  0
    0.5640   15.1310   -2.3260 C   0  0  0  0  0  0  0  0  0  0  0  0
    0.5520   14.8910    0.0700 C   0  0  0  0  0  0  0  0  0  0  0  0
    0.2540   14.2340   -3.5150 C   0  0  0  0  0  0  0  0  0  0  0  0
   -1.2400   14.0890   -3.8660 C   0  0  1  0  0  0  0  0  0  0  0  0
   -1.7980   15.2730   -4.6910 C   0  0  0  0  0  0  0  0  0  0  0  0
   -1.6310   12.7250   -4.2560 N   0  0  0  0  0  0  0  0  0  0  0  0
   -0.8250   16.7610   -4.9180 S   0  0  0  0  0  0  0  0  0  0  0  0
   -2.9710   12.3750   -3.7730 C   0  0  0  0  0  0  0  0  0  0  0  0
   -0.6970   11.6510   -3.8690 C   0  0  0  0  0  0  0  0  0  0  0  0
    0.1300   17.0090   -3.6710 O   0  0  0  0  0  0  0  0  0  0  0  0
   -0.2280   16.8950   -6.2060 O   0  0  0  0  0  0  0  0  0  0  0  0
   -2.0150   17.8680   -4.8770 O   0  0  0  0  0  0  0  0  0  0  0  0
   -3.4880   11.2860   -4.4430 C   0  0  0  0  0  0  0  0  0  0  0  0
   -1.3840   10.2930   -3.5840 C   0  0  0  0  0  0  0  0  0  0  0  0
   -2.7310   10.0590   -4.1940 N   0  0  0  0  0  0  0  0  0  0  0  0
   -3.5780    9.1150   -3.4460 C   0  0  0  0  0  0  0  0  0  0  0  0
   -3.6750    7.6780   -4.0110 C   0  0  0  0  0  0  0  0  0  0  0  0
   -3.6170    6.7510   -2.9380 O   0  0  0  0  0  0  0  0  0  0  0  0
  1  2  1  0
  1  3  1  0
  3  4  1  0
  3  5  1  0
  4  6  1  0
  5  7  1  0
  6  8  1  0
  7  8  1  0
  8  9  1  0
  9 10  2  0
  9 11  1  0
 10 12  1  0
 11 13  2  0
 12 14  1  0
 12 15  2  0
 13 15  1  0
 14 16  1  0
 17 16  1  6
 17 18  1  0
 17 19  1  0
 18 20  1  0
 19 21  1  0
 19 22  1  0
 20 23  2  0
 20 24  2  0
 20 25  1  0
 21 26  1  0
 22 27  1  0
 26 28  1  0
 27 28  1  0
 28 29  1  0
 29 30  1  0
 30 31  1  0
M  END
>  <%Rank>  (95) 
93.069307

>  <N_hits>  (95) 
2

>  <submitter_name>  (95) 
nan

>  <original SMILES>  (95) 
nan

>  <∆G_unbound>  (95) 
1.184433

>  <∆G_bound>  (95) 
-4.439717

>  <regarded>  (95) 
mArh-x0282_0_A,mArh-4j4z_0_A

>  <ref_pdb>  (95) 
nan

>  <smiles>  (95) 
O=S(=O)(O)CC(CCc1ccnc(N2CCC(CO)CC2)n1)N1CCN(CCO)CC1

>  <submitter_email>  (95) 
nan

>  <disregarded>  (95) 


>  <LE>  (95) 
-0.181424

>  <submitter_institution>  (95) 
nan

>  <ref_mols>  (95) 
mArh-x0282_0_A,mArh-4j4z_0_A

>  <N_constrained_atoms>  (95) 
29.0

>  <ref_url>  (95) 
nan

>  <method>  (95) 
nan

>  <comRMSD>  (95) 
1.458273

>  <N_unconstrained_atoms>  (95) 
2.0

>  <∆∆G>  (95) 
-5.62415

>  <runtime>  (95) 
35.943588

>  <generation_date>  (95) 
nan

$$$$
mArh-x0574_0_A-mArh-x0910_0_A
     RDKit          3D

 17 19  0  0  0  0  0  0  0  0999 V2000
    0.2600   14.0110    2.3580 N   0  0  0  0  0  0  0  0  0  0  0  0
   -0.6960   14.2430    1.5240 C   0  0  0  0  0  0  0  0  0  0  0  0
   -1.8790   14.3310    1.9650 N   0  0  0  0  0  0  0  0  0  0  0  0
   -0.4380   14.4390   -0.1510 S   0  0  0  0  0  0  0  0  0  0  0  0
   -2.7110   14.5500    0.9410 C   0  0  0  0  0  0  0  0  0  0  0  0
   -2.1240   14.6460   -0.3170 C   0  0  0  0  0  0  0  0  0  0  0  0
   -4.0610   14.6710    1.0840 C   0  0  0  0  0  0  0  0  0  0  0  0
   -2.8730   14.8730   -1.4660 C   0  0  0  0  0  0  0  0  0  0  0  0
   -4.7920   14.8840   -0.0500 C   0  0  0  0  0  0  0  0  0  0  0  0
   -4.2300   14.9910   -1.3000 C   0  0  0  0  0  0  0  0  0  0  0  0
   -6.1620   15.0040   -0.0010 C   0  0  0  0  0  0  0  0  0  0  0  0
   -6.8300   15.5690   -0.9630 N   0  0  0  0  0  0  0  0  0  0  0  0
   -6.9650   14.5840    0.9830 N   0  0  0  0  0  0  0  0  0  0  0  0
   -8.1200   15.5330   -0.6090 N   0  0  0  0  0  0  0  0  0  0  0  0
   -8.1830   14.9400    0.5590 C   0  0  0  0  0  0  0  0  0  0  0  0
   -6.6680   13.9050    2.2270 C   0  0  0  0  0  0  0  0  0  0  0  0
   -6.4300   14.8550    3.3770 C   0  0  0  0  0  0  0  0  0  0  0  0
  1  2  1  0
  2  3  2  0
  2  4  1  0
  3  5  1  0
  4  6  1  0
  5  6  2  0
  5  7  1  0
  6  8  1  0
  7  9  2  0
  8 10  2  0
  9 10  1  0
  9 11  1  0
 11 12  2  0
 11 13  1  0
 12 14  1  0
 13 15  1  0
 14 15  2  0
 13 16  1  0
 16 17  1  0
M  END
>  <%Rank>  (96) 
94.059406

>  <N_hits>  (96) 
2

>  <submitter_name>  (96) 
nan

>  <original SMILES>  (96) 
nan

>  <∆G_unbound>  (96) 
0.039855

>  <∆G_bound>  (96) 
-7.784966

>  <regarded>  (96) 
mArh-x0574_0_A,mArh-x0910_0_A

>  <ref_pdb>  (96) 
nan

>  <smiles>  (96) 
CCn1cnnc1-c1ccc2sc(N)nc2c1

>  <submitter_email>  (96) 
nan

>  <disregarded>  (96) 


>  <LE>  (96) 
-0.460284

>  <submitter_institution>  (96) 
nan

>  <ref_mols>  (96) 
mArh-x0574_0_A,mArh-x0910_0_A

>  <N_constrained_atoms>  (96) 
16.0

>  <ref_url>  (96) 
nan

>  <method>  (96) 
nan

>  <comRMSD>  (96) 
1.399265

>  <N_unconstrained_atoms>  (96) 
1.0

>  <∆∆G>  (96) 
-7.824821

>  <runtime>  (96) 
25.288974

>  <generation_date>  (96) 
nan

$$$$
mArh-6ywk_E_2_E-mArh-5fud_A_0_A
     RDKit          3D

 17 17  0  0  0  0  0  0  0  0999 V2000
    1.2040   20.7050   -7.5200 O   0  0  0  0  0  0  0  0  0  0  0  0
    0.3680   19.5540   -7.2360 S   0  0  0  0  0  0  0  0  0  0  0  0
    0.6720   18.6340   -6.1780 O   0  0  0  0  0  0  0  0  0  0  0  0
    0.1600   18.6750   -8.5860 O   0  0  0  0  0  0  0  0  0  0  0  0
   -1.3280   20.1320   -6.9390 C   0  0  0  0  0  0  0  0  0  0  0  0
   -1.8030   21.4550   -7.4900 C   0  0  1  0  0  0  0  0  0  0  0  0
   -2.0300   19.3390   -6.3040 O   0  0  0  0  0  0  0  0  0  0  0  0
   -1.7210   21.1800   -8.9120 C   0  0  0  0  0  0  0  0  0  0  0  0
   -3.0920   21.9640   -7.0840 N   0  0  0  0  0  0  0  0  0  0  0  0
   -3.2100   23.4060   -7.2510 C   0  0  0  0  0  0  0  0  0  0  0  0
   -4.2520   21.3360   -7.7080 C   0  0  0  0  0  0  0  0  0  0  0  0
   -4.3070   23.8270   -6.5250 C   0  0  0  0  0  0  0  0  0  0  0  0
   -5.4090   21.7010   -7.0410 C   0  0  0  0  0  0  0  0  0  0  0  0
   -5.5880   23.1570   -6.8820 N   0  0  0  0  0  0  0  0  0  0  0  0
   -6.0660   23.7610   -8.1330 C   0  0  0  0  0  0  0  0  0  0  0  0
   -6.4860   22.7510   -9.2020 C   0  0  0  0  0  0  0  0  0  0  0  0
   -7.8970   22.8070   -9.4180 O   0  0  0  0  0  0  0  0  0  0  0  0
  1  2  2  0
  2  3  2  0
  2  4  1  0
  2  5  1  0
  5  6  1  0
  5  7  2  0
  6  8  1  6
  6  9  1  0
  9 10  1  0
  9 11  1  0
 10 12  1  0
 11 13  1  0
 12 14  1  0
 13 14  1  0
 14 15  1  0
 15 16  1  0
 16 17  1  0
M  END
>  <%Rank>  (97) 
95.049505

>  <N_hits>  (97) 
2

>  <submitter_name>  (97) 
nan

>  <original SMILES>  (97) 
nan

>  <∆G_unbound>  (97) 
0.42584

>  <∆G_bound>  (97) 
-6.232101

>  <regarded>  (97) 
mArh-6ywk_E_2_E,mArh-5fud_A_0_A

>  <ref_pdb>  (97) 
nan

>  <smiles>  (97) 
CC(C(=O)S(=O)(=O)O)N1CCN(CCO)CC1

>  <submitter_email>  (97) 
nan

>  <disregarded>  (97) 


>  <LE>  (97) 
-0.391644

>  <submitter_institution>  (97) 
nan

>  <ref_mols>  (97) 
mArh-6ywk_E_2_E,mArh-5fud_A_0_A

>  <N_constrained_atoms>  (97) 
17.0

>  <ref_url>  (97) 
nan

>  <method>  (97) 
nan

>  <comRMSD>  (97) 
1.434783

>  <N_unconstrained_atoms>  (97) 
0.0

>  <∆∆G>  (97) 
-6.657941

>  <runtime>  (97) 
22.508227

>  <generation_date>  (97) 
nan

$$$$
mArh-x0524_0_A-mArh-x0159_0_B
     RDKit          3D

 29 32  0  0  0  0  0  0  0  0999 V2000
   -1.7810    7.8760   -9.1450 N   0  0  0  0  0  0  0  0  0  0  0  0
   -1.8390    8.6780   -7.9980 C   0  0  0  0  0  0  0  0  0  0  0  0
   -2.0080    7.8790   -6.7260 C   0  0  0  0  0  0  0  0  0  0  0  0
   -0.8070    7.9530  -10.1800 C   0  0  0  0  0  0  0  0  0  0  0  0
   -1.7640    9.9050   -7.9390 O   0  0  0  0  0  0  0  0  0  0  0  0
    0.0800    6.8870  -10.3800 C   0  0  0  0  0  0  0  0  0  0  0  0
   -0.6710    9.0330  -11.0150 C   0  0  0  0  0  0  0  0  0  0  0  0
    1.1630    6.8900  -11.4390 C   0  0  0  0  0  0  0  0  0  0  0  0
    0.3210    9.0400  -11.9920 C   0  0  0  0  0  0  0  0  0  0  0  0
    1.2470    7.9980  -12.2200 C   0  0  0  0  0  0  0  0  0  0  0  0
    2.2160    8.2000  -13.2290 N   0  0  0  0  0  0  0  0  0  0  0  0
    3.1000    9.1780  -12.6190 C   0  0  2  0  0  0  0  0  0  0  0  0
    2.5410   10.5690  -12.7760 C   0  0  0  0  0  0  0  0  0  0  0  0
    4.3940    9.0910  -13.1460 C   0  0  0  0  0  0  0  0  0  0  0  0
    2.8320    8.8900  -11.2230 N   0  0  0  0  0  0  0  0  0  0  0  0
    2.8120   11.3610  -14.0580 C   0  0  0  0  0  0  0  0  0  0  0  0
    4.8140    9.9370  -14.1200 C   0  0  0  0  0  0  0  0  0  0  0  0
    1.8480   10.9170  -11.7470 N   0  0  0  0  0  0  0  0  0  0  0  0
    2.0320    9.8640  -10.8660 C   0  0  0  0  0  0  0  0  0  0  0  0
    1.4460    9.8100   -9.6380 N   0  0  0  0  0  0  0  0  0  0  0  0
    3.9530   10.9870  -14.6600 C   0  0  0  0  0  0  0  0  0  0  0  0
    1.7350    8.7270   -8.6970 C   0  0  0  0  0  0  0  0  0  0  0  0
    0.7050    7.6250   -8.5610 C   0  0  0  0  0  0  0  0  0  0  0  0
    1.2640    6.3050   -8.0840 C   0  0  0  0  0  0  0  0  0  0  0  0
    2.3760    5.7100   -8.7000 C   0  0  0  0  0  0  0  0  0  0  0  0
    0.6670    5.6590   -7.0070 C   0  0  0  0  0  0  0  0  0  0  0  0
    2.8750    4.4890   -8.2340 C   0  0  0  0  0  0  0  0  0  0  0  0
    1.1660    4.4500   -6.5520 C   0  0  0  0  0  0  0  0  0  0  0  0
    2.2690    3.8590   -7.1570 C   0  0  0  0  0  0  0  0  0  0  0  0
  1  2  1  0
  2  3  1  0
  1  4  1  0
  2  5  2  0
  4  6  2  0
  4  7  1  0
  6  8  1  0
  7  9  2  0
  8 10  2  0
  9 10  1  0
 10 11  1  0
 12 11  1  6
 12 13  1  0
 12 14  1  0
 12 15  1  0
 13 16  1  0
 14 17  2  0
 13 18  2  0
 15 19  2  0
 18 19  1  0
 19 20  1  0
 16 21  2  0
 17 21  1  0
 20 22  1  0
 22 23  1  0
 23 24  1  0
 24 25  2  0
 24 26  1  0
 25 27  1  0
 26 28  2  0
 27 29  2  0
 28 29  1  0
M  END
>  <%Rank>  (98) 
96.039604

>  <N_hits>  (98) 
2

>  <submitter_name>  (98) 
nan

>  <original SMILES>  (98) 
nan

>  <∆G_unbound>  (98) 
1.348077

>  <∆G_bound>  (98) 
0.194978

>  <regarded>  (98) 
mArh-x0524_0_A,mArh-x0159_0_B

>  <ref_pdb>  (98) 
nan

>  <smiles>  (98) 
CC(=O)Nc1ccc(NC23C=CC=CC2=NC(NCCc2ccccc2)=N3)cc1

>  <submitter_email>  (98) 
nan

>  <disregarded>  (98) 


>  <LE>  (98) 
-0.039762

>  <submitter_institution>  (98) 
nan

>  <ref_mols>  (98) 
mArh-x0524_0_A,mArh-x0159_0_B

>  <N_constrained_atoms>  (98) 
29.0

>  <ref_url>  (98) 
nan

>  <method>  (98) 
nan

>  <comRMSD>  (98) 
1.488538

>  <N_unconstrained_atoms>  (98) 
0.0

>  <∆∆G>  (98) 
-1.153099

>  <runtime>  (98) 
61.388095

>  <generation_date>  (98) 
nan

$$$$
mArh-6vxs_B_0_B-mArh-x0598_0_A
     RDKit          3D

 30 31  0  0  0  0  0  0  0  0999 V2000
    9.2670   33.7320    9.0670 N   0  0  0  0  0  0  0  0  0  0  0  0
    9.3900   32.6180    8.1490 C   0  0  0  0  0  0  0  0  0  0  0  0
   10.7150   31.8960    8.2670 C   0  0  0  0  0  0  0  0  0  0  0  0
    8.3440   34.8040    8.6760 C   0  0  0  0  0  0  0  0  0  0  0  0
    8.0630   35.7200    9.8740 C   0  0  0  0  0  0  0  0  0  0  0  0
    7.1670   34.3950    8.0370 C   0  0  0  0  0  0  0  0  0  0  0  0
   10.7030   30.4830    9.3530 S   0  0  2  0  0  0  0  0  0  0  0  0
    7.3250   36.9810    9.4640 C   0  0  0  0  0  0  0  0  0  0  0  0
    6.1630   35.5360    7.7410 C   0  0  0  0  0  0  0  0  0  0  0  0
   12.0370   30.0310    9.6140 O   0  0  0  0  0  0  0  0  0  0  0  0
    9.5390   29.5340    9.1810 N   0  0  0  0  0  0  0  0  0  0  0  0
   10.0520   31.1530   10.6630 O   0  0  0  0  0  0  0  0  0  0  0  0
    6.0170   36.6540    8.7760 C   0  0  0  0  0  0  0  0  0  0  0  0
    9.8860   28.1860    9.6780 C   0  0  0  0  0  0  0  0  0  0  0  0
   10.6940   28.2860   10.9680 C   0  0  0  0  0  0  0  0  0  0  0  0
   10.6630   26.9440   11.6930 C   0  0  0  0  0  0  0  0  0  0  0  0
   11.4690   26.9000   12.9760 C   0  0  0  0  0  0  0  0  0  0  0  0
   10.6250   26.4590   14.1320 C   0  0  0  0  0  0  0  0  0  0  0  0
   10.3360   25.0450   13.9430 N   0  0  0  0  0  0  0  0  0  0  0  0
   10.8990   24.2070   15.0720 S   0  0  1  0  0  0  0  0  0  0  0  0
    9.6110   24.2290   16.1910 N   0  0  0  0  0  0  0  0  0  0  0  0
   11.4210   22.5850   14.5620 C   0  0  0  0  0  0  0  0  0  0  0  0
   11.9740   24.6380   15.8620 O   0  0  0  0  0  0  0  0  0  0  0  0
    8.8790   25.4210   16.5660 C   0  0  0  0  0  0  0  0  0  0  0  0
    7.4250   25.1310   16.9870 C   0  0  0  0  0  0  0  0  0  0  0  0
    7.2790   25.0630   18.4860 C   0  0  0  0  0  0  0  0  0  0  0  0
    6.5750   26.0340   16.4040 C   0  0  0  0  0  0  0  0  0  0  0  0
    5.9380   25.2990   18.9020 C   0  0  0  0  0  0  0  0  0  0  0  0
    5.1790   25.5360   16.5100 C   0  0  0  0  0  0  0  0  0  0  0  0
    4.8300   25.3840   17.9100 N   0  0  0  0  0  0  0  0  0  0  0  0
  1  2  1  0
  2  3  1  0
  1  4  1  0
  4  5  1  0
  4  6  1  0
  3  7  1  0
  5  8  1  0
  6  9  1  0
  7 10  2  0
  7 11  2  0
  7 12  1  1
  8 13  1  0
  9 13  1  0
 11 14  1  0
 14 15  1  0
 15 16  1  0
 16 17  1  0
 17 18  1  0
 18 19  1  0
 19 20  2  0
 20 21  1  0
 20 22  1  6
 20 23  2  0
 21 24  1  0
 24 25  1  0
 25 26  1  0
 25 27  1  0
 26 28  1  0
 27 29  1  0
 28 30  1  0
 29 30  1  0
M  END
>  <%Rank>  (99) 
97.029703

>  <N_hits>  (99) 
2

>  <submitter_name>  (99) 
nan

>  <original SMILES>  (99) 
nan

>  <∆G_unbound>  (99) 
1.301373

>  <∆G_bound>  (99) 
-5.16204

>  <regarded>  (99) 
mArh-6vxs_B_0_B,mArh-x0598_0_A

>  <ref_pdb>  (99) 
nan

>  <smiles>  (99) 
CS(=O)(=NCCCCCN=S(=O)(O)CCNC1CCCCC1)NCC1CCNCC1

>  <submitter_email>  (99) 
nan

>  <disregarded>  (99) 


>  <LE>  (99) 
-0.215447

>  <submitter_institution>  (99) 
nan

>  <ref_mols>  (99) 
mArh-6vxs_B_0_B,mArh-x0598_0_A

>  <N_constrained_atoms>  (99) 
25.0

>  <ref_url>  (99) 
nan

>  <method>  (99) 
nan

>  <comRMSD>  (99) 
1.884146

>  <N_unconstrained_atoms>  (99) 
5.0

>  <∆∆G>  (99) 
-6.463413

>  <runtime>  (99) 
29.699615

>  <generation_date>  (99) 
nan

$$$$
mArh-x0805_0_A-mArh-5l9k_A_0_A
     RDKit          3D

 52 57  0  0  0  0  0  0  0  0999 V2000
   -4.1800   15.6100    1.4210 C   0  0  0  0  0  0  0  0  0  0  0  0
   -2.8660   15.0110    1.6560 O   0  0  0  0  0  0  0  0  0  0  0  0
   -2.6450   14.6480    0.3810 C   0  0  0  0  0  0  0  0  0  0  0  0
   -4.2180   15.3940   -0.1030 C   0  0  0  0  0  0  0  0  0  0  0  0
   -2.9570   15.3620   -0.5800 N   0  0  0  0  0  0  0  0  0  0  0  0
   -5.2470   15.1960   -1.1090 C   0  0  0  0  0  0  0  0  0  0  0  0
   -3.7600   14.2860   -0.3740 C   0  0  0  0  0  0  0  0  0  0  0  0
   -1.3560   14.6480   -0.2060 C   0  0  0  0  0  0  0  0  0  0  0  0
   -4.7650   14.9920   -2.4250 C   0  0  0  0  0  0  0  0  0  0  0  0
   -2.6900   15.1730   -1.8840 C   0  0  0  0  0  0  0  0  0  0  0  0
   -6.6280   15.1340   -1.1570 N   0  0  0  0  0  0  0  0  0  0  0  0
   -3.6400   13.9500   -1.7070 C   0  0  0  0  0  0  0  0  0  0  0  0
   -1.2480   14.2910   -1.5840 C   0  0  0  0  0  0  0  0  0  0  0  0
   -3.5280   14.9780   -2.8780 N   0  0  0  0  0  0  0  0  0  0  0  0
   -5.8080   14.7790   -3.2450 N   0  0  0  0  0  0  0  0  0  0  0  0
   -6.9280   14.8850   -2.4450 C   0  0  0  0  0  0  0  0  0  0  0  0
   -2.3880   13.9650   -2.3020 C   0  0  0  0  0  0  0  0  0  0  0  0
   -0.0170   14.1870   -2.4270 C   0  0  2  0  0  0  0  0  0  0  0  0
   -5.6070   14.4860   -4.6910 C   0  0  1  0  0  0  0  0  0  0  0  0
    1.0400   13.3930   -1.7020 C   0  0  1  0  0  0  0  0  0  0  0  0
    0.5010   15.4330   -3.1050 C   0  0  0  0  0  0  0  0  0  0  0  0
   -4.7600   15.4620   -5.3630 O   0  0  0  0  0  0  0  0  0  0  0  0
   -4.9230   13.1580   -5.0580 C   0  0  1  0  0  0  0  0  0  0  0  0
    1.1370   12.0440   -2.3890 C   0  0  0  0  0  0  0  0  0  0  0  0
   -5.5140   12.5370   -6.1980 O   0  0  0  0  0  0  0  0  0  0  0  0
    2.3860   14.1160   -1.6580 C   0  0  0  0  0  0  0  0  0  0  0  0
    1.8090   15.1230   -3.7940 C   0  0  0  0  0  0  0  0  0  0  0  0
   -3.4160   15.0220   -5.6280 C   0  0  2  0  0  0  0  0  0  0  0  0
   -3.4450   13.5210   -5.3320 C   0  0  2  0  0  0  0  0  0  0  0  0
    1.7800   12.1120   -3.5770 O   0  0  0  0  0  0  0  0  0  0  0  0
    0.6800   10.9840   -1.9450 O   0  0  0  0  0  0  0  0  0  0  0  0
   -2.4130   15.8480   -4.7700 C   0  0  0  0  0  0  0  0  0  0  0  0
   -3.0440   12.7660   -6.4930 O   0  0  0  0  0  0  0  0  0  0  0  0
    2.8250   14.7400   -2.8620 O   0  0  0  0  0  0  0  0  0  0  0  0
   -1.4560   16.5610   -5.5680 O   0  0  0  0  0  0  0  0  0  0  0  0
   -1.5450   18.1620   -5.7140 P   0  0  2  0  0  0  0  0  0  0  0  0
   -1.9850   18.9540   -4.5490 O   0  0  0  0  0  0  0  0  0  0  0  0
   -2.5540   18.2650   -6.9480 O   0  0  0  0  0  0  0  0  0  0  0  0
   -0.2060   18.6890   -6.3630 O   0  0  0  0  0  0  0  0  0  0  0  0
   -0.2310   19.4900   -7.7240 P   0  0  2  0  0  0  0  0  0  0  0  0
    0.1620   18.6670   -8.8780 O   0  0  0  0  0  0  0  0  0  0  0  0
    0.7310   20.7570   -7.5500 O   0  0  0  0  0  0  0  0  0  0  0  0
   -1.6710   20.1800   -7.8490 O   0  0  0  0  0  0  0  0  0  0  0  0
   -1.7650   21.5920   -7.7010 C   0  0  0  0  0  0  0  0  0  0  0  0
   -3.1470   22.0560   -8.1790 C   0  0  2  0  0  0  0  0  0  0  0  0
   -3.4980   23.5120   -7.8830 C   0  0  1  0  0  0  0  0  0  0  0  0
   -4.1890   21.3320   -7.5180 O   0  0  0  0  0  0  0  0  0  0  0  0
   -4.3860   24.0100   -8.9160 O   0  0  0  0  0  0  0  0  0  0  0  0
   -4.4950   21.9870   -6.2930 C   0  0  1  0  0  0  0  0  0  0  0  0
   -4.2600   23.4810   -6.5450 C   0  0  2  0  0  0  0  0  0  0  0  0
   -5.8690   21.7390   -6.0220 O   0  0  0  0  0  0  0  0  0  0  0  0
   -5.5060   24.1940   -6.6140 O   0  0  0  0  0  0  0  0  0  0  0  0
  1  2  1  0
  2  3  1  0
  1  4  1  0
  4  5  2  0
  4  6  1  0
  3  7  2  0
  3  8  1  0
  6  9  2  0
  5 10  1  0
  6 11  1  0
  7 12  1  0
  8 13  2  0
  9 14  1  0
 10 14  2  0
  9 15  1  0
 11 16  2  0
 15 16  1  0
 12 17  2  0
 13 17  1  0
 18 13  1  1
 19 15  1  1
 18 20  1  0
 18 21  1  0
 19 22  1  0
 19 23  1  0
 20 24  1  6
 23 25  1  6
 20 26  1  0
 21 27  1  0
 22 28  1  0
 23 29  1  0
 28 29  1  0
 24 30  1  0
 24 31  2  0
 28 32  1  1
 29 33  1  6
 26 34  1  0
 27 34  1  0
 32 35  1  0
 35 36  1  0
 36 37  2  0
 36 38  1  6
 36 39  1  0
 39 40  1  0
 40 41  2  0
 40 42  1  1
 40 43  1  0
 43 44  1  0
 45 44  1  1
 45 46  1  0
 45 47  1  0
 46 48  1  6
 47 49  1  0
 46 50  1  0
 49 50  1  0
 49 51  1  6
 50 52  1  6
M  END
>  <%Rank>  (100) 
98.019802

>  <N_hits>  (100) 
2

>  <submitter_name>  (100) 
nan

>  <original SMILES>  (100) 
nan

>  <∆G_unbound>  (100) 
5.888651

>  <∆G_bound>  (100) 
-1.826946

>  <regarded>  (100) 
mArh-x0805_0_A,mArh-5l9k_A_0_A

>  <ref_pdb>  (100) 
nan

>  <smiles>  (100) 
O=C(O)C1COCCC1c1cccc(OCc2ncnc3c2ncn3C2OC(CO[P@](=O)(O)O[P@](=O)(O)OCC3OC(O)C(O)C3O)C(O)C2O)c1

>  <submitter_email>  (100) 
nan

>  <disregarded>  (100) 


>  <LE>  (100) 
-0.148377

>  <submitter_institution>  (100) 
nan

>  <ref_mols>  (100) 
mArh-x0805_0_A,mArh-5l9k_A_0_A

>  <N_constrained_atoms>  (100) 
52.0

>  <ref_url>  (100) 
nan

>  <method>  (100) 
nan

>  <comRMSD>  (100) 
2.269535

>  <N_unconstrained_atoms>  (100) 
0.0

>  <∆∆G>  (100) 
-7.715596

>  <runtime>  (100) 
167.542014

>  <generation_date>  (100) 
nan

$$$$
mArh-x0910_2_B-mArh-5cb5_L_0_L
     RDKit          3D

 48 52  0  0  0  0  0  0  0  0999 V2000
  -12.1800   22.4440    0.0400 N   0  0  0  0  0  0  0  0  0  0  0  0
  -12.5300   23.4480   -0.7880 C   0  0  0  0  0  0  0  0  0  0  0  0
  -11.8930   23.6870   -1.9690 N   0  0  0  0  0  0  0  0  0  0  0  0
  -13.4830   24.3220   -0.6170 N   0  0  0  0  0  0  0  0  0  0  0  0
  -10.7880   22.9390   -2.5260 C   0  0  0  0  0  0  0  0  0  0  0  0
  -12.4350   24.7500   -2.6070 N   0  0  0  0  0  0  0  0  0  0  0  0
  -13.3920   25.0960   -1.7440 C   0  0  0  0  0  0  0  0  0  0  0  0
   -9.2310   23.5790   -2.2800 C   0  0  0  0  0  0  0  0  0  0  0  0
   -7.5710   23.0160   -3.3360 C   0  0  0  0  0  0  0  0  0  0  0  0
   -6.6220   21.8110   -4.3220 C   0  0  0  0  0  0  0  0  0  0  0  0
   -5.8020   21.9640   -5.7270 C   0  0  0  0  0  0  0  0  0  0  0  0
   -6.0720   21.3660   -7.1260 C   0  0  0  0  0  0  0  0  0  0  0  0
   -4.8870   21.0440   -7.7840 O   0  0  0  0  0  0  0  0  0  0  0  0
   -4.5790   21.9500   -8.8370 C   0  0  1  0  0  0  0  0  0  0  0  0
   -4.4250   23.3820   -8.3090 C   0  0  2  0  0  0  0  0  0  0  0  0
   -3.2620   21.6280   -9.2130 O   0  0  0  0  0  0  0  0  0  0  0  0
   -4.5770   24.3020   -9.3930 O   0  0  0  0  0  0  0  0  0  0  0  0
   -2.9960   23.3650   -7.7510 C   0  0  1  0  0  0  0  0  0  0  0  0
   -2.6640   21.9020   -7.9410 C   0  0  2  0  0  0  0  0  0  0  0  0
   -2.1260   24.1840   -8.5170 O   0  0  0  0  0  0  0  0  0  0  0  0
   -1.2380   21.4770   -7.9020 C   0  0  0  0  0  0  0  0  0  0  0  0
   -1.2250   20.1000   -7.5860 O   0  0  0  0  0  0  0  0  0  0  0  0
    0.2080   19.5520   -7.4500 P   0  0  2  0  0  0  0  0  0  0  0  0
    1.2590   20.6160   -7.4500 O   0  0  0  0  0  0  0  0  0  0  0  0
    0.2730   18.5420   -8.6800 O   0  0  0  0  0  0  0  0  0  0  0  0
    0.1980   18.5230   -6.2430 O   0  0  0  0  0  0  0  0  0  0  0  0
   -1.1300   17.8640   -5.7300 P   0  0  2  0  0  0  0  0  0  0  0  0
   -0.6470   16.4580   -5.1240 O   0  0  0  0  0  0  0  0  0  0  0  0
   -2.2790   17.7690   -6.6820 O   0  0  0  0  0  0  0  0  0  0  0  0
   -1.4800   18.7200   -4.4350 O   0  0  0  0  0  0  0  0  0  0  0  0
    0.7560   16.2070   -4.9350 C   0  0  0  0  0  0  0  0  0  0  0  0
    0.9900   15.0000   -4.0190 C   0  0  1  0  0  0  0  0  0  0  0  0
    0.1040   15.1140   -2.8930 O   0  0  0  0  0  0  0  0  0  0  0  0
    0.6900   13.5910   -4.5740 C   0  0  1  0  0  0  0  0  0  0  0  0
    1.6920   12.6230   -4.2290 O   0  0  0  0  0  0  0  0  0  0  0  0
   -0.6340   13.1730   -3.8840 C   0  0  2  0  0  0  0  0  0  0  0  0
   -1.1260   14.5110   -3.3580 C   0  0  1  0  0  0  0  0  0  0  0  0
   -0.4570   12.1290   -2.9340 O   0  0  0  0  0  0  0  0  0  0  0  0
   -2.1280   14.7450   -2.3360 N   0  0  0  0  0  0  0  0  0  0  0  0
   -1.9200   14.6730   -0.9780 C   0  0  0  0  0  0  0  0  0  0  0  0
   -3.4270   15.0970   -2.5100 C   0  0  0  0  0  0  0  0  0  0  0  0
   -3.1450   15.0180   -0.3670 C   0  0  0  0  0  0  0  0  0  0  0  0
   -0.7710   14.3500   -0.3530 N   0  0  0  0  0  0  0  0  0  0  0  0
   -4.1370   15.2890   -1.2840 N   0  0  0  0  0  0  0  0  0  0  0  0
   -3.1680   15.0420    1.1510 C   0  0  0  0  0  0  0  0  0  0  0  0
   -0.9440   14.3980    1.1180 C   0  0  0  0  0  0  0  0  0  0  0  0
   -4.3000   15.3950    1.8570 N   0  0  0  0  0  0  0  0  0  0  0  0
   -2.0410   14.7140    1.8320 N   0  0  0  0  0  0  0  0  0  0  0  0
  1  2  1  0
  2  3  1  0
  2  4  2  0
  3  5  1  0
  3  6  1  0
  4  7  1  0
  6  7  2  0
  5  8  1  0
  8  9  1  0
  9 10  1  0
 10 11  1  0
 11 12  1  0
 12 13  1  0
 14 13  1  1
 14 15  1  0
 14 16  1  0
 15 17  1  6
 15 18  1  0
 16 19  1  0
 18 19  1  0
 18 20  1  6
 19 21  1  6
 21 22  1  0
 22 23  1  0
 23 24  2  0
 23 25  1  6
 23 26  1  0
 26 27  1  0
 27 28  1  0
 27 29  2  0
 27 30  1  1
 28 31  1  0
 32 31  1  6
 32 33  1  0
 32 34  1  0
 34 35  1  1
 34 36  1  0
 33 37  1  0
 36 37  1  0
 36 38  1  1
 37 39  1  1
 39 40  1  0
 39 41  1  0
 40 42  2  0
 40 43  1  0
 41 44  2  0
 42 44  1  0
 42 45  1  0
 43 46  2  0
 45 47  1  0
 45 48  2  0
 46 48  1  0
M  END
>  <%Rank>  (101) 
99.009901

>  <N_hits>  (101) 
2

>  <submitter_name>  (101) 
nan

>  <original SMILES>  (101) 
nan

>  <∆G_unbound>  (101) 
3.485556

>  <∆G_bound>  (101) 
105.482795

>  <regarded>  (101) 
mArh-x0910_2_B,mArh-5cb5_L_0_L

>  <ref_pdb>  (101) 
nan

>  <smiles>  (101) 
Nc1ncnc2c1ncn2C1OC(CO[P@@](=O)(O)O[P@@](=O)(O)OCC2OC(OCCCCCCn3ncnc3N)C(O)C2O)C(O)C1O

>  <submitter_email>  (101) 
nan

>  <disregarded>  (101) 


>  <LE>  (101) 
2.124942

>  <submitter_institution>  (101) 
nan

>  <ref_mols>  (101) 
mArh-x0910_2_B,mArh-5cb5_L_0_L

>  <N_constrained_atoms>  (101) 
42.0

>  <ref_url>  (101) 
nan

>  <method>  (101) 
nan

>  <comRMSD>  (101) 
1.294189

>  <N_unconstrained_atoms>  (101) 
6.0

>  <∆∆G>  (101) 
101.997239

>  <runtime>  (101) 
102.750917

>  <generation_date>  (101) 
nan

$$$$
mArh-3gqe_A_0_A-mArh-x0852_0_B
     RDKit          3D

 27 27  0  0  0  0  0  0  0  0999 V2000
   -4.1670   21.2430   -7.0850 C   0  0  0  0  0  0  0  0  0  0  0  0
   -2.6950   21.3950   -6.9980 N   0  0  0  0  0  0  0  0  0  0  0  0
   -2.1910   22.3140   -8.0100 C   0  0  0  0  0  0  0  0  0  0  0  0
   -4.8510   21.2340   -5.7370 C   0  0  0  0  0  0  0  0  0  0  0  0
   -1.9520   20.1120   -7.0140 C   0  0  0  0  0  0  0  0  0  0  0  0
   -6.1510   21.1450   -5.4750 N   0  0  0  0  0  0  0  0  0  0  0  0
   -3.9750   21.3020   -4.6920 O   0  0  0  0  0  0  0  0  0  0  0  0
   -2.7760   23.7240   -7.9240 C   0  0  0  0  0  0  0  0  0  0  0  0
   -0.6840   20.0400   -7.8960 C   0  0  0  0  0  0  0  0  0  0  0  0
   -6.7090   21.1020   -4.0450 C   0  0  0  0  0  0  0  0  0  0  0  0
   -3.9590   23.8530   -8.7270 O   0  0  0  0  0  0  0  0  0  0  0  0
   -0.6290   18.7850   -8.5670 O   0  0  0  0  0  0  0  0  0  0  0  0
   -8.2830   19.4100   -2.8550 C   0  0  0  0  0  0  0  0  0  0  0  0
   -8.6930   17.9010   -2.2570 C   0  0  0  0  0  0  0  0  0  0  0  0
   -9.6250   17.6930   -1.0460 C   0  0  0  0  0  0  0  0  0  0  0  0
   -9.4200   16.2960   -0.4530 C   0  0  0  0  0  0  0  0  0  0  0  0
  -10.3690   15.9560    0.6980 C   0  0  0  0  0  0  0  0  0  0  0  0
  -10.2190   16.8450    1.8050 O   0  0  0  0  0  0  0  0  0  0  0  0
   -9.5110   16.4260    2.8980 C   0  0  0  0  0  0  0  0  0  0  0  0
   -8.5300   15.4370    2.9070 C   0  0  0  0  0  0  0  0  0  0  0  0
   -9.8320   17.0820    4.0940 C   0  0  0  0  0  0  0  0  0  0  0  0
   -7.8750   15.1070    4.0930 C   0  0  0  0  0  0  0  0  0  0  0  0
   -9.1800   16.7510    5.2910 C   0  0  0  0  0  0  0  0  0  0  0  0
   -9.5440   17.4410    6.4930 C   0  0  0  0  0  0  0  0  0  0  0  0
   -8.1930   15.7540    5.2780 C   0  0  0  0  0  0  0  0  0  0  0  0
   -9.8590   17.9530    7.4910 N   0  0  0  0  0  0  0  0  0  0  0  0
   -7.4810   15.3340    6.3690 O   0  0  0  0  0  0  0  0  0  0  0  0
  1  2  1  0
  2  3  1  0
  1  4  1  0
  2  5  1  0
  4  6  2  3
  4  7  1  0
  3  8  1  0
  5  9  1  0
  6 10  1  0
  8 11  1  0
  9 12  1  0
 10 13  1  0
 13 14  1  0
 14 15  1  0
 15 16  1  0
 16 17  1  0
 17 18  1  0
 18 19  1  0
 19 20  2  0
 19 21  1  0
 20 22  1  0
 21 23  2  0
 23 24  1  0
 22 25  2  0
 23 25  1  0
 24 26  3  0
 25 27  1  0
M  END
>  <%Rank>  (102) 
100.0

>  <N_hits>  (102) 
2

>  <submitter_name>  (102) 
nan

>  <original SMILES>  (102) 
nan

>  <∆G_unbound>  (102) 
0.631577

>  <∆G_bound>  (102) 
79.585784

>  <regarded>  (102) 
mArh-3gqe_A_0_A,mArh-x0852_0_B

>  <ref_pdb>  (102) 
nan

>  <smiles>  (102) 
N#Cc1cc(OCCCCCCN=C(O)CN(CCO)CCO)ccc1O

>  <submitter_email>  (102) 
nan

>  <disregarded>  (102) 


>  <LE>  (102) 
2.92423

>  <submitter_institution>  (102) 
nan

>  <ref_mols>  (102) 
mArh-3gqe_A_0_A,mArh-x0852_0_B

>  <N_constrained_atoms>  (102) 
21.0

>  <ref_url>  (102) 
nan

>  <method>  (102) 
nan

>  <comRMSD>  (102) 
1.941648

>  <N_unconstrained_atoms>  (102) 
6.0

>  <∆∆G>  (102) 
78.954207

>  <runtime>  (102) 
151.31198

>  <generation_date>  (102) 
nan

$$$$
