Fragmenstein_NSP3_quicktest1
     RDKit          2D

  3  2  0  0  0  0  0  0  0  0999 V2000
    2.5981   -0.0000    0.0000 F   0  0  0  0  0  0  0  0  0  0  0  0
    1.2990    0.7500    0.0000 O   0  0  0  0  0  0  0  0  0  0  0  0
    0.0000    0.0000    0.0000 O   0  0  0  0  0  0  0  0  0  0  0  0
  1  2  1  0
  2  3  1  0
M  END
>  <%Rank>  (1) 
Sorted by 2x RSMD (high is bad) + LE (high is bad) - 3x N_constrained_atoms/(20+N_constrained_atoms) + N_unconstrained_atoms/N_constrained_atoms

>  <N_hits>  (1) 
Number of hits used

>  <submitter_name>  (1) 
Matteo Ferla

>  <original SMILES>  (1) 
molecule smiles

>  <∆G_unbound>  (1) 
Gibbs Free energy of ligand unbound

>  <∆G_bound>  (1) 
Gibbs Free energy of ligand bound

>  <regarded>  (1) 
Fragments used for mapping

>  <ref_pdb>  (1) 
All ligands were evaluated against the apo crystal of 6WOJ

>  <smiles>  (1) 
molecule smiles used

>  <submitter_email>  (1) 
matteo@well.ox.ac.uk

>  <disregarded>  (1) 
Fragments rejected for mapping

>  <LE>  (1) 
Ligand efficiency (kcal/mol/N_heavy)

>  <submitter_institution>  (1) 
Universtity of Oxford

>  <ref_mols>  (1) 
all reference molecules

>  <N_constrained_atoms>  (1) 
Number of atoms in the submission that were constrained

>  <ref_url>  (1) 
https://github.com/matteoferla/Fragmenstein

>  <method>  (1) 
Fragmenstein Postera rescored (permissive mapping). Rank = 2x RSMD + 1 x LE - 3x Nc/(20+Nc) ranked + 1x Nu/Nc

>  <comRMSD>  (1) 
Combined RMSD from the atoms of the fragments that contributed to the position of the followup

>  <N_unconstrained_atoms>  (1) 
Number of heavy atoms in the submission that were NOT constrained

>  <∆∆G>  (1) 
Difference in Gibbs Free energy relative to unbound molecule in kcal/mol (ref2015 scorefxn; negative=Good)

>  <runtime>  (1) 
seconds it took

>  <generation_date>  (1) 
2020-09-21T16:50:16.069898

$$$$
mArh-6woj_D_0_D-mArh-x0852_0_B
     RDKit          3D

 50 54  0  0  0  0  0  0  0  0999 V2000
   -1.2010   18.2570   -5.8060 P   0  0  2  0  0  0  0  0  0  0  0  0
    0.0160   17.2840   -6.2030 O   0  0  0  0  0  0  0  0  0  0  0  0
    0.9200   16.7920   -5.2090 C   0  0  0  0  0  0  0  0  0  0  0  0
   -1.5670   18.2110   -4.3800 O   0  0  0  0  0  0  0  0  0  0  0  0
   -2.3770   17.8070   -6.8030 O   0  0  0  0  0  0  0  0  0  0  0  0
   -0.6860   19.5960   -6.3710 O   0  0  0  0  0  0  0  0  0  0  0  0
   -0.0890   20.0080   -7.7470 P   0  0  1  0  0  0  0  0  0  0  0  0
    1.1650   20.8230   -7.5920 O   0  0  0  0  0  0  0  0  0  0  0  0
    0.1130   18.7140   -8.6780 O   0  0  0  0  0  0  0  0  0  0  0  0
   -1.2220   20.8060   -8.4770 O   0  0  0  0  0  0  0  0  0  0  0  0
    0.1690   15.6310   -4.6330 C   0  0  2  0  0  0  0  0  0  0  0  0
   -1.7280   21.9140   -7.8000 C   0  0  0  0  0  0  0  0  0  0  0  0
    0.2060   15.4910   -3.2200 O   0  0  0  0  0  0  0  0  0  0  0  0
    0.4040   14.2090   -5.1350 C   0  0  1  0  0  0  0  0  0  0  0  0
    1.6470   13.6350   -4.7090 O   0  0  0  0  0  0  0  0  0  0  0  0
   -0.7380   13.5690   -4.3420 C   0  0  2  0  0  0  0  0  0  0  0  0
   -0.9680   14.6990   -3.2950 C   0  0  1  0  0  0  0  0  0  0  0  0
   -3.1560   22.2060   -8.1870 C   0  0  2  0  0  0  0  0  0  0  0  0
   -0.3420   12.2960   -3.8680 O   0  0  0  0  0  0  0  0  0  0  0  0
   -3.6820   23.6120   -7.9320 C   0  0  1  0  0  0  0  0  0  0  0  0
   -3.9970   21.2970   -7.4440 O   0  0  0  0  0  0  0  0  0  0  0  0
   -1.7440   14.5790   -2.0910 N   0  0  0  0  0  0  0  0  0  0  0  0
   -4.5170   24.1280   -8.9580 O   0  0  0  0  0  0  0  0  0  0  0  0
   -5.0330   22.0600   -6.8460 C   0  0  2  0  0  0  0  0  0  0  0  0
   -4.4030   23.4170   -6.6070 C   0  0  2  0  0  0  0  0  0  0  0  0
   -1.4170   14.5240   -0.7560 C   0  0  0  0  0  0  0  0  0  0  0  0
   -3.1080   14.5180   -2.1870 C   0  0  0  0  0  0  0  0  0  0  0  0
   -5.4050   21.4780   -5.6100 O   0  0  0  0  0  0  0  0  0  0  0  0
   -5.3740   24.4180   -6.3000 O   0  0  0  0  0  0  0  0  0  0  0  0
   -2.6550   14.4330   -0.1230 C   0  0  0  0  0  0  0  0  0  0  0  0
   -0.2170   14.5530   -0.1480 N   0  0  0  0  0  0  0  0  0  0  0  0
   -3.6910   14.4280   -1.0250 N   0  0  0  0  0  0  0  0  0  0  0  0
   -2.6720   14.3620    1.2790 C   0  0  0  0  0  0  0  0  0  0  0  0
   -0.3720   14.4900    1.1940 C   0  0  0  0  0  0  0  0  0  0  0  0
   -3.8480   14.2480    1.9970 N   0  0  0  0  0  0  0  0  0  0  0  0
   -1.4960   14.3990    1.9130 N   0  0  0  0  0  0  0  0  0  0  0  0
   -4.7690   15.3190    2.2680 C   0  0  0  0  0  0  0  0  0  0  0  0
   -5.2780   15.2710    3.7100 C   0  0  0  0  0  0  0  0  0  0  0  0
   -6.2930   14.1650    3.9590 C   0  0  0  0  0  0  0  0  0  0  0  0
   -6.6340   13.9850    5.4540 C   0  0  0  0  0  0  0  0  0  0  0  0
   -7.7630   14.7620    5.8810 O   0  0  0  0  0  0  0  0  0  0  0  0
   -8.4390   15.3490    4.8630 C   0  0  0  0  0  0  0  0  0  0  0  0
   -8.3370   14.6650    3.6470 C   0  0  0  0  0  0  0  0  0  0  0  0
   -9.1910   16.5220    4.9420 C   0  0  0  0  0  0  0  0  0  0  0  0
   -9.3670   17.2680    6.1530 C   0  0  0  0  0  0  0  0  0  0  0  0
   -8.9680   15.1340    2.5070 C   0  0  0  0  0  0  0  0  0  0  0  0
   -9.8180   16.9970    3.7890 C   0  0  0  0  0  0  0  0  0  0  0  0
   -9.5940   17.8270    7.1490 N   0  0  0  0  0  0  0  0  0  0  0  0
   -9.7100   16.3000    2.5730 C   0  0  0  0  0  0  0  0  0  0  0  0
  -10.5620   16.9100    0.9960 Br  0  0  0  0  0  0  0  0  0  0  0  0
  1  2  1  0
  2  3  1  0
  1  4  2  0
  1  5  1  6
  1  6  1  0
  6  7  1  0
  7  8  2  0
  7  9  1  6
  7 10  1  0
 11  3  1  6
 10 12  1  0
 11 13  1  0
 11 14  1  0
 14 15  1  1
 14 16  1  0
 13 17  1  0
 16 17  1  0
 18 12  1  1
 16 19  1  1
 18 20  1  0
 18 21  1  0
 17 22  1  1
 20 23  1  6
 21 24  1  0
 20 25  1  0
 24 25  1  0
 22 26  1  0
 22 27  1  0
 24 28  1  1
 25 29  1  6
 26 30  2  0
 26 31  1  0
 27 32  2  0
 30 32  1  0
 30 33  1  0
 31 34  2  0
 33 35  1  0
 33 36  2  0
 34 36  1  0
 35 37  1  0
 37 38  1  0
 38 39  1  0
 39 40  1  0
 40 41  1  0
 41 42  1  0
 42 43  2  0
 42 44  1  0
 44 45  1  0
 43 46  1  0
 44 47  2  0
 45 48  3  0
 46 49  2  0
 47 49  1  0
 49 50  1  0
M  END
>  <%Rank>  (2) 
0.396825

>  <N_hits>  (2) 
2

>  <submitter_name>  (2) 
nan

>  <original SMILES>  (2) 
nan

>  <∆G_unbound>  (2) 
7.446918

>  <∆G_bound>  (2) 
-23.988349

>  <regarded>  (2) 
mArh-6woj_D_0_D,mArh-x0852_0_B

>  <ref_pdb>  (2) 
nan

>  <smiles>  (2) 
N#Cc1cc(Br)ccc1OCCCCNc1ncnc2c1ncn2C1OC(CO[P@](=O)(O)O[P@@](=O)(O)OCC2OC(O)C(O)C2O)C(O)C1O

>  <submitter_email>  (2) 
nan

>  <disregarded>  (2) 


>  <LE>  (2) 
-0.628705

>  <submitter_institution>  (2) 
nan

>  <ref_mols>  (2) 
mArh-6woj_D_0_D,mArh-x0852_0_B

>  <N_constrained_atoms>  (2) 
46.0

>  <ref_url>  (2) 
nan

>  <method>  (2) 
nan

>  <comRMSD>  (2) 
0.422743

>  <N_unconstrained_atoms>  (2) 
4.0

>  <∆∆G>  (2) 
-31.435267

>  <runtime>  (2) 
110.604097

>  <generation_date>  (2) 
nan

$$$$
mArh-3q6z_0_A-mArh-x0676_0_B
     RDKit          3D

 55 60  0  0  0  0  0  0  0  0999 V2000
   -1.3360   18.2420   -5.8630 P   0  0  2  0  0  0  0  0  0  0  0  0
   -0.0820   17.2640   -6.0800 O   0  0  0  0  0  0  0  0  0  0  0  0
    0.6020   16.7890   -4.9380 C   0  0  0  0  0  0  0  0  0  0  0  0
   -1.8070   18.3230   -4.4780 O   0  0  0  0  0  0  0  0  0  0  0  0
   -2.4400   17.6900   -6.8900 O   0  0  0  0  0  0  0  0  0  0  0  0
   -0.8180   19.5760   -6.4620 O   0  0  0  0  0  0  0  0  0  0  0  0
   -0.3110   19.7620   -7.9260 P   0  0  2  0  0  0  0  0  0  0  0  0
    0.2190   18.6130   -8.6800 O   0  0  0  0  0  0  0  0  0  0  0  0
    0.6830   21.0080   -7.7700 O   0  0  0  0  0  0  0  0  0  0  0  0
   -1.6260   20.3790   -8.5540 O   0  0  0  0  0  0  0  0  0  0  0  0
   -0.1500   15.5770   -4.4480 C   0  0  2  0  0  0  0  0  0  0  0  0
   -1.9290   21.7420   -8.4820 C   0  0  0  0  0  0  0  0  0  0  0  0
   -0.3870   15.5360   -3.0410 O   0  0  0  0  0  0  0  0  0  0  0  0
    0.4160   14.2050   -4.7670 C   0  0  1  0  0  0  0  0  0  0  0  0
    1.6450   13.9680   -4.0700 O   0  0  0  0  0  0  0  0  0  0  0  0
   -0.7010   13.4120   -4.1260 C   0  0  2  0  0  0  0  0  0  0  0  0
   -1.0640   14.2700   -2.8810 C   0  0  2  0  0  0  0  0  0  0  0  0
   -2.9610   22.0780   -7.4620 C   0  0  1  0  0  0  0  0  0  0  0  0
   -0.3590   12.0720   -3.8300 O   0  0  0  0  0  0  0  0  0  0  0  0
   -3.6130   23.4500   -7.5670 C   0  0  1  0  0  0  0  0  0  0  0  0
   -4.0510   21.1750   -7.5520 O   0  0  0  0  0  0  0  0  0  0  0  0
   -2.4860   14.4510   -2.6550 N   0  0  0  0  0  0  0  0  0  0  0  0
   -4.3830   23.6740   -8.7760 O   0  0  0  0  0  0  0  0  0  0  0  0
   -0.6210   11.1020   -4.8430 C   0  0  0  0  0  0  0  0  0  0  0  0
   -5.1180   21.7960   -6.8290 C   0  0  1  0  0  0  0  0  0  0  0  0
   -4.5860   23.1970   -6.4560 C   0  0  2  0  0  0  0  0  0  0  0  0
   -3.0980   14.5580   -1.4210 C   0  0  0  0  0  0  0  0  0  0  0  0
   -3.4760   14.5370   -3.6020 C   0  0  0  0  0  0  0  0  0  0  0  0
   -6.2790   21.7970   -7.6410 O   0  0  0  0  0  0  0  0  0  0  0  0
   -5.6510   24.1410   -6.4270 O   0  0  0  0  0  0  0  0  0  0  0  0
    0.0280   11.4250   -6.1900 C   0  0  0  0  0  0  0  0  0  0  0  0
   -4.4480   14.6950   -1.7020 C   0  0  0  0  0  0  0  0  0  0  0  0
   -2.5330   14.5340   -0.1930 N   0  0  0  0  0  0  0  0  0  0  0  0
   -4.6690   14.6840   -3.0620 N   0  0  0  0  0  0  0  0  0  0  0  0
   -0.2520   10.2990   -7.1890 C   0  0  0  0  0  0  0  0  0  0  0  0
   -5.3150   14.8130   -0.6010 C   0  0  0  0  0  0  0  0  0  0  0  0
   -3.4610   14.6540    0.7800 C   0  0  0  0  0  0  0  0  0  0  0  0
   -6.6890   14.9560   -0.7330 N   0  0  0  0  0  0  0  0  0  0  0  0
    0.3720   10.5860   -8.5480 C   0  0  0  0  0  0  0  0  0  0  0  0
   -4.7940   14.7870    0.6490 N   0  0  0  0  0  0  0  0  0  0  0  0
   -0.1870    9.6150   -9.5920 C   0  0  0  0  0  0  0  0  0  0  0  0
    0.6750    8.3700   -9.7560 C   0  0  0  0  0  0  0  0  0  0  0  0
    1.6190    8.5650  -10.8450 N   0  0  0  0  0  0  0  0  0  0  0  0
    2.7780    8.0240  -10.8230 C   0  0  0  0  0  0  0  0  0  0  0  0
    3.2980    7.1410   -9.7210 C   0  0  0  0  0  0  0  0  0  0  0  0
    3.8030    8.1120  -11.7490 N   0  0  0  0  0  0  0  0  0  0  0  0
    5.0190    7.6810  -11.2190 N   0  0  0  0  0  0  0  0  0  0  0  0
    4.7530    7.1530  -10.0630 C   0  0  0  0  0  0  0  0  0  0  0  0
    3.9020    9.1400  -12.7270 C   0  0  0  0  0  0  0  0  0  0  0  0
    5.7860    6.6050   -9.1450 C   0  0  0  0  0  0  0  0  0  0  0  0
    2.9680   10.2020  -12.7530 C   0  0  0  0  0  0  0  0  0  0  0  0
    4.9070    9.1700  -13.6990 C   0  0  0  0  0  0  0  0  0  0  0  0
    3.0430   11.2290  -13.6940 C   0  0  0  0  0  0  0  0  0  0  0  0
    4.9840   10.1970  -14.6450 C   0  0  0  0  0  0  0  0  0  0  0  0
    4.0520   11.2280  -14.6420 C   0  0  0  0  0  0  0  0  0  0  0  0
  1  2  1  0
  2  3  1  0
  1  4  2  0
  1  5  1  6
  1  6  1  0
  6  7  1  0
  7  8  2  0
  7  9  1  1
  7 10  1  0
 11  3  1  1
 10 12  1  0
 11 13  1  0
 11 14  1  0
 14 15  1  1
 14 16  1  0
 13 17  1  0
 16 17  1  0
 18 12  1  6
 16 19  1  1
 18 20  1  0
 18 21  1  0
 17 22  1  6
 20 23  1  6
 19 24  1  0
 21 25  1  0
 20 26  1  0
 25 26  1  0
 22 27  1  0
 22 28  1  0
 25 29  1  6
 26 30  1  6
 24 31  1  0
 27 32  2  0
 27 33  1  0
 28 34  2  0
 32 34  1  0
 31 35  1  0
 32 36  1  0
 33 37  2  0
 36 38  1  0
 35 39  1  0
 36 40  2  0
 37 40  1  0
 39 41  1  0
 41 42  1  0
 42 43  1  0
 43 44  2  3
 44 45  1  0
 44 46  1  0
 46 47  1  0
 45 48  1  0
 47 48  2  0
 46 49  1  0
 48 50  1  0
 49 51  2  0
 49 52  1  0
 51 53  1  0
 52 54  2  0
 53 55  2  0
 54 55  1  0
M  END
>  <%Rank>  (3) 
0.793651

>  <N_hits>  (3) 
2

>  <submitter_name>  (3) 
nan

>  <original SMILES>  (3) 
nan

>  <∆G_unbound>  (3) 
4.476592

>  <∆G_bound>  (3) 
-22.591204

>  <regarded>  (3) 
mArh-3q6z_0_A,mArh-x0676_0_B

>  <ref_pdb>  (3) 
nan

>  <smiles>  (3) 
CC1=NN(c2ccccc2)C(=NCCCCCCOC2C(O)C(CO[P@](=O)(O)O[P@](=O)(O)OCC3OC(O)C(O)C3O)OC2n2cnc3c(N)ncnc32)C1

>  <submitter_email>  (3) 
nan

>  <disregarded>  (3) 


>  <LE>  (3) 
-0.492142

>  <submitter_institution>  (3) 
nan

>  <ref_mols>  (3) 
mArh-3q6z_0_A,mArh-x0676_0_B

>  <N_constrained_atoms>  (3) 
49.0

>  <ref_url>  (3) 
nan

>  <method>  (3) 
nan

>  <comRMSD>  (3) 
0.447616

>  <N_unconstrained_atoms>  (3) 
6.0

>  <∆∆G>  (3) 
-27.067796

>  <runtime>  (3) 
61.355661

>  <generation_date>  (3) 
nan

$$$$
mArh-x0104_0_A-mArh-5dus_0_A
     RDKit          3D

 52 57  0  0  0  0  0  0  0  0999 V2000
   -6.8450   14.7840    2.7510 N   0  0  0  0  0  0  0  0  0  0  0  0
   -8.0600   15.1010    3.2760 C   0  0  0  0  0  0  0  0  0  0  0  0
   -8.1340   15.1690    4.6260 N   0  0  0  0  0  0  0  0  0  0  0  0
   -6.4210   14.3020    1.4410 C   0  0  2  0  0  0  0  0  0  0  0  0
   -8.9550   15.2920    2.4490 O   0  0  0  0  0  0  0  0  0  0  0  0
   -5.0350   14.8440    1.0350 C   0  0  0  0  0  0  0  0  0  0  0  0
   -7.4870   14.6270    0.4150 C   0  0  0  0  0  0  0  0  0  0  0  0
   -4.7280   14.7560   -0.4090 N   0  0  0  0  0  0  0  0  0  0  0  0
   -7.1660   15.1430   -0.7810 C   0  0  0  0  0  0  0  0  0  0  0  0
   -9.2880   15.1530    5.3870 C   0  0  0  0  0  0  0  0  0  0  0  0
   -5.7610   15.4390   -1.1820 C   0  0  2  0  0  0  0  0  0  0  0  0
   -9.3380   15.2040    6.7640 C   0  0  0  0  0  0  0  0  0  0  0  0
  -10.8420   15.0640    4.6960 S   0  0  0  0  0  0  0  0  0  0  0  0
   -3.3590   15.2480   -0.6680 N   0  0  0  0  0  0  0  0  0  0  0  0
   -5.5990   15.0560   -2.5310 O   0  0  0  0  0  0  0  0  0  0  0  0
  -11.5960   15.0900    6.2380 C   0  0  0  0  0  0  0  0  0  0  0  0
  -10.6740   15.1680    7.2590 C   0  0  0  0  0  0  0  0  0  0  0  0
   -2.4600   14.3160    0.0030 C   0  0  2  0  0  0  0  0  0  0  0  0
   -3.0450   14.9790   -2.0600 C   0  0  0  0  0  0  0  0  0  0  0  0
   -2.2320   14.5570    1.4470 C   0  0  2  0  0  0  0  0  0  0  0  0
   -1.1390   14.3400   -0.8250 C   0  0  1  0  0  0  0  0  0  0  0  0
   -1.7410   14.3420   -2.1350 N   0  0  0  0  0  0  0  0  0  0  0  0
   -3.3230   15.3190    2.0140 N   0  0  0  0  0  0  0  0  0  0  0  0
   -1.1240   14.7790   -3.3300 C   0  0  1  0  0  0  0  0  0  0  0  0
   -1.0360   15.2450    1.6650 N   0  0  0  0  0  0  0  0  0  0  0  0
   -0.1800   15.3050   -0.5010 N   0  0  0  0  0  0  0  0  0  0  0  0
    0.1090   15.4820   -3.2210 O   0  0  0  0  0  0  0  0  0  0  0  0
   -0.9500   13.7780   -4.4980 C   0  0  2  0  0  0  0  0  0  0  0  0
    0.1030   14.9700    0.8460 C   0  0  0  0  0  0  0  0  0  0  0  0
   -0.8970   12.3870   -4.2100 O   0  0  0  0  0  0  0  0  0  0  0  0
    0.1500   15.6940   -4.6250 C   0  0  2  0  0  0  0  0  0  0  0  0
    0.3030   14.3000   -5.1770 C   0  0  1  0  0  0  0  0  0  0  0  0
    0.7980   16.9340   -5.1620 C   0  0  0  0  0  0  0  0  0  0  0  0
    1.4190   13.4560   -4.8710 O   0  0  0  0  0  0  0  0  0  0  0  0
   -0.0350   17.4510   -6.1860 O   0  0  0  0  0  0  0  0  0  0  0  0
   -1.4320   18.2140   -5.9570 P   0  0  1  0  0  0  0  0  0  0  0  0
   -2.5810   17.5860   -6.6820 O   0  0  0  0  0  0  0  0  0  0  0  0
   -1.6750   18.3950   -4.4070 O   0  0  0  0  0  0  0  0  0  0  0  0
   -1.0320   19.6360   -6.4160 O   0  0  0  0  0  0  0  0  0  0  0  0
   -0.2360   19.9930   -7.7120 P   0  0  1  0  0  0  0  0  0  0  0  0
    1.0250   20.7810   -7.5610 O   0  0  0  0  0  0  0  0  0  0  0  0
   -0.0820   18.6510   -8.5890 O   0  0  0  0  0  0  0  0  0  0  0  0
   -1.3630   20.7600   -8.5270 O   0  0  0  0  0  0  0  0  0  0  0  0
   -1.8700   21.8990   -7.8350 C   0  0  0  0  0  0  0  0  0  0  0  0
   -3.3160   22.1530   -8.2360 C   0  0  2  0  0  0  0  0  0  0  0  0
   -3.8400   23.5630   -8.0010 C   0  0  1  0  0  0  0  0  0  0  0  0
   -4.1480   21.2740   -7.4560 O   0  0  0  0  0  0  0  0  0  0  0  0
   -4.6640   24.0770   -9.0610 O   0  0  0  0  0  0  0  0  0  0  0  0
   -5.1880   22.0310   -6.8620 C   0  0  2  0  0  0  0  0  0  0  0  0
   -4.5970   23.4100   -6.6870 C   0  0  2  0  0  0  0  0  0  0  0  0
   -5.6110   21.4930   -5.6260 O   0  0  0  0  0  0  0  0  0  0  0  0
   -5.5740   24.4160   -6.4450 O   0  0  0  0  0  0  0  0  0  0  0  0
  1  2  1  0
  2  3  1  0
  4  1  1  1
  2  5  2  0
  4  6  1  0
  4  7  1  0
  6  8  1  0
  7  9  2  0
  3 10  1  0
  8 11  1  0
  9 11  1  0
 10 12  2  0
 10 13  1  0
  8 14  1  0
 11 15  1  6
 13 16  1  0
 12 17  1  0
 16 17  2  0
 18 14  1  6
 14 19  1  0
 18 20  1  0
 18 21  1  0
 19 22  1  0
 21 22  1  0
 20 23  1  6
 24 22  1  1
 20 25  1  0
 21 26  1  1
 24 27  1  0
 24 28  1  0
 25 29  1  0
 26 29  1  0
 28 30  1  1
 27 31  1  0
 28 32  1  0
 31 32  1  0
 31 33  1  1
 32 34  1  1
 33 35  1  0
 35 36  1  0
 36 37  2  0
 36 38  1  1
 36 39  1  0
 39 40  1  0
 40 41  2  0
 40 42  1  6
 40 43  1  0
 43 44  1  0
 45 44  1  1
 45 46  1  0
 45 47  1  0
 46 48  1  6
 47 49  1  0
 46 50  1  0
 49 50  1  0
 49 51  1  1
 50 52  1  6
M  END
>  <%Rank>  (4) 
1.190476

>  <N_hits>  (4) 
2

>  <submitter_name>  (4) 
nan

>  <original SMILES>  (4) 
nan

>  <∆G_unbound>  (4) 
17.207001

>  <∆G_bound>  (4) 
-12.222323

>  <regarded>  (4) 
mArh-x0104_0_A,mArh-5dus_0_A

>  <ref_pdb>  (4) 
nan

>  <smiles>  (4) 
NC1NCNC2C1N(N1CC(NC(=O)Nc3cccs3)C=CC1O)CN2C1OC(CO[P@@](=O)(O)O[P@@](=O)(O)OCC2OC(O)C(O)C2O)C(O)C1O

>  <submitter_email>  (4) 
nan

>  <disregarded>  (4) 


>  <LE>  (4) 
-0.565949

>  <submitter_institution>  (4) 
nan

>  <ref_mols>  (4) 
mArh-x0104_0_A,mArh-5dus_0_A

>  <N_constrained_atoms>  (4) 
52.0

>  <ref_url>  (4) 
nan

>  <method>  (4) 
nan

>  <comRMSD>  (4) 
0.58

>  <N_unconstrained_atoms>  (4) 
0.0

>  <∆∆G>  (4) 
-29.429324

>  <runtime>  (4) 
48.796073

>  <generation_date>  (4) 
nan

$$$$
mArh-x0253_0_A-mArh-6mea_B_0_B
     RDKit          3D

 49 53  0  0  0  0  0  0  0  0999 V2000
    0.4600   11.4410   -5.3770 N   0  0  0  0  0  0  0  0  0  0  0  0
    1.0960   11.5660   -6.5770 C   0  0  0  0  0  0  0  0  0  0  0  0
    2.0650   12.2740   -6.7420 O   0  0  0  0  0  0  0  0  0  0  0  0
    0.2880   12.5050   -4.4030 C   0  0  1  0  0  0  0  0  0  0  0  0
    1.1050   12.2280   -3.1530 C   0  0  0  0  0  0  0  0  0  0  0  0
    0.5040   10.6980   -7.6290 C   0  0  0  0  0  0  0  0  0  0  0  0
    0.0700   13.9160   -4.9520 C   0  0  2  0  0  0  0  0  0  0  0  0
    2.0980   12.8130   -2.7550 O   0  0  0  0  0  0  0  0  0  0  0  0
    0.5690   11.2010   -2.4650 O   0  0  0  0  0  0  0  0  0  0  0  0
   -0.4700    9.7730   -7.2480 C   0  0  0  0  0  0  0  0  0  0  0  0
    0.8890   10.7770   -8.9730 C   0  0  0  0  0  0  0  0  0  0  0  0
    0.8380   15.1440   -4.3920 C   0  0  1  0  0  0  0  0  0  0  0  0
   -1.3640   14.2670   -4.5850 C   0  0  1  0  0  0  0  0  0  0  0  0
    0.5450   16.5380   -5.0190 C   0  0  0  0  0  0  0  0  0  0  0  0
   -2.0900   13.0420   -4.4700 O   0  0  0  0  0  0  0  0  0  0  0  0
   -1.0600    8.9310   -8.1900 C   0  0  0  0  0  0  0  0  0  0  0  0
    0.3060    9.9390   -9.9190 C   0  0  0  0  0  0  0  0  0  0  0  0
    0.3220   15.1330   -3.0430 O   0  0  0  0  0  0  0  0  0  0  0  0
   -1.0890   15.0240   -3.2690 C   0  0  2  0  0  0  0  0  0  0  0  0
   -2.1070    7.9430   -7.7720 C   0  0  0  0  0  0  0  0  0  0  0  0
   -0.8320   16.6490   -5.3940 O   0  0  0  0  0  0  0  0  0  0  0  0
   -0.6650    9.0200   -9.5300 C   0  0  0  0  0  0  0  0  0  0  0  0
   -1.8550   14.9670   -2.0400 N   0  0  0  0  0  0  0  0  0  0  0  0
   -1.4660   18.0480   -5.8650 P   0  0  1  0  0  0  0  0  0  0  0  0
   -1.4770   14.7730   -0.7240 C   0  0  0  0  0  0  0  0  0  0  0  0
   -3.2120   15.1640   -2.0490 C   0  0  0  0  0  0  0  0  0  0  0  0
   -2.6080   17.8910   -6.8070 O   0  0  0  0  0  0  0  0  0  0  0  0
   -1.8400   18.7670   -4.5060 O   0  0  0  0  0  0  0  0  0  0  0  0
   -0.2650   18.9310   -6.3590 O   0  0  0  0  0  0  0  0  0  0  0  0
   -2.6630   14.9130   -0.0240 C   0  0  0  0  0  0  0  0  0  0  0  0
   -0.2630   14.5310   -0.1880 N   0  0  0  0  0  0  0  0  0  0  0  0
   -3.7280   15.1370   -0.8530 N   0  0  0  0  0  0  0  0  0  0  0  0
   -0.2110   19.7800   -7.6840 P   0  0  1  0  0  0  0  0  0  0  0  0
   -2.6100   14.8270    1.3540 C   0  0  0  0  0  0  0  0  0  0  0  0
   -0.3620   14.4470    1.1640 C   0  0  0  0  0  0  0  0  0  0  0  0
    0.7790   20.8910   -7.7040 O   0  0  0  0  0  0  0  0  0  0  0  0
    0.0790   18.6420   -8.7750 O   0  0  0  0  0  0  0  0  0  0  0  0
   -1.7270   20.2060   -8.0010 O   0  0  0  0  0  0  0  0  0  0  0  0
   -3.7280   15.0100    2.1190 N   0  0  0  0  0  0  0  0  0  0  0  0
   -1.4360   14.5820    1.9400 N   0  0  0  0  0  0  0  0  0  0  0  0
   -2.0440   21.5250   -8.4480 C   0  0  0  0  0  0  0  0  0  0  0  0
   -3.0780   22.1170   -7.5160 C   0  0  1  0  0  0  0  0  0  0  0  0
   -3.5790   23.5500   -7.7510 C   0  0  1  0  0  0  0  0  0  0  0  0
   -4.2780   21.3470   -7.5780 O   0  0  0  0  0  0  0  0  0  0  0  0
   -4.2710   23.7830   -8.9900 O   0  0  0  0  0  0  0  0  0  0  0  0
   -5.2380   22.1260   -6.8760 C   0  0  2  0  0  0  0  0  0  0  0  0
   -4.5760   23.4880   -6.6090 C   0  0  2  0  0  0  0  0  0  0  0  0
   -5.6060   21.5190   -5.6530 O   0  0  0  0  0  0  0  0  0  0  0  0
   -5.6110   24.4720   -6.6220 O   0  0  0  0  0  0  0  0  0  0  0  0
  1  2  1  0
  2  3  2  0
  4  1  1  6
  4  5  1  0
  2  6  1  0
  7  4  1  1
  5  8  2  0
  5  9  1  0
  6 10  2  0
  6 11  1  0
  7 12  1  0
  7 13  1  0
 12 14  1  6
 13 15  1  1
 10 16  1  0
 11 17  2  0
 12 18  1  0
 13 19  1  0
 18 19  1  0
 16 20  1  0
 14 21  1  0
 16 22  2  0
 17 22  1  0
 19 23  1  1
 21 24  1  0
 23 25  1  0
 23 26  1  0
 24 27  2  0
 24 28  1  1
 24 29  1  0
 25 30  2  0
 25 31  1  0
 26 32  2  0
 30 32  1  0
 29 33  1  0
 30 34  1  0
 31 35  2  0
 33 36  2  0
 33 37  1  6
 33 38  1  0
 34 39  1  0
 34 40  2  0
 35 40  1  0
 38 41  1  0
 42 41  1  6
 42 43  1  0
 42 44  1  0
 43 45  1  6
 44 46  1  0
 43 47  1  0
 46 47  1  0
 46 48  1  1
 47 49  1  6
M  END
>  <%Rank>  (5) 
1.587302

>  <N_hits>  (5) 
2

>  <submitter_name>  (5) 
nan

>  <original SMILES>  (5) 
nan

>  <∆G_unbound>  (5) 
7.795053

>  <∆G_bound>  (5) 
-15.125607

>  <regarded>  (5) 
mArh-x0253_0_A,mArh-6mea_B_0_B

>  <ref_pdb>  (5) 
nan

>  <smiles>  (5) 
Cc1cccc(C(=O)NC(C(=O)O)C2C(CO[P@@](=O)(O)O[P@@](=O)(O)OCC3OC(O)C(O)C3O)OC(n3cnc4c(N)ncnc43)C2O)c1

>  <submitter_email>  (5) 
nan

>  <disregarded>  (5) 


>  <LE>  (5) 
-0.467769

>  <submitter_institution>  (5) 
nan

>  <ref_mols>  (5) 
mArh-x0253_0_A,mArh-6mea_B_0_B

>  <N_constrained_atoms>  (5) 
49.0

>  <ref_url>  (5) 
nan

>  <method>  (5) 
nan

>  <comRMSD>  (5) 
0.513292

>  <N_unconstrained_atoms>  (5) 
0.0

>  <∆∆G>  (5) 
-22.92066

>  <runtime>  (5) 
63.496321

>  <generation_date>  (5) 
nan

$$$$
mArh-x0797_0_B-mArh-5dus_0_A
     RDKit          3D

 53 58  0  0  0  0  0  0  0  0999 V2000
   -8.2990   29.4890  -13.9770 C   0  0  0  0  0  0  0  0  0  0  0  0
   -6.8260   29.3170  -13.6940 C   0  0  0  0  0  0  0  0  0  0  0  0
   -5.9410   30.1940  -14.3570 C   0  0  0  0  0  0  0  0  0  0  0  0
   -6.2720   28.3300  -12.8170 C   0  0  0  0  0  0  0  0  0  0  0  0
   -4.8860   28.3000  -12.6640 C   0  0  0  0  0  0  0  0  0  0  0  0
   -4.5630   30.1160  -14.1750 C   0  0  0  0  0  0  0  0  0  0  0  0
   -6.9750   27.2500  -12.0070 C   0  0  2  0  0  0  0  0  0  0  0  0
   -4.0450   29.1650  -13.3240 C   0  0  0  0  0  0  0  0  0  0  0  0
   -7.3410   25.9000  -12.6240 C   0  0  2  0  0  0  0  0  0  0  0  0
   -8.1990   27.4770  -11.1440 C   0  0  0  0  0  0  0  0  0  0  0  0
   -7.4780   25.8230  -14.1040 C   0  0  0  0  0  0  0  0  0  0  0  0
   -8.2460   26.1070  -10.5540 N   0  0  0  0  0  0  0  0  0  0  0  0
   -8.4420   25.3210  -11.7490 C   0  0  0  0  0  0  0  0  0  0  0  0
   -8.5790   26.4170  -14.5950 O   0  0  0  0  0  0  0  0  0  0  0  0
   -6.6830   25.2840  -14.8420 O   0  0  0  0  0  0  0  0  0  0  0  0
   -6.9950   25.7850   -9.8090 C   0  0  0  0  0  0  0  0  0  0  0  0
   -6.5360   24.3980   -9.1550 C   0  0  0  0  0  0  0  0  0  0  0  0
   -5.0970   24.0530   -9.3610 O   0  0  0  0  0  0  0  0  0  0  0  0
   -4.1730   23.5740   -8.2970 C   0  0  1  0  0  0  0  0  0  0  0  0
   -4.7420   23.4240   -6.8920 C   0  0  1  0  0  0  0  0  0  0  0  0
   -3.5630   22.1550   -8.4490 C   0  0  1  0  0  0  0  0  0  0  0  0
   -5.6270   24.4460   -6.4600 O   0  0  0  0  0  0  0  0  0  0  0  0
   -2.1860   21.7910   -7.8150 C   0  0  0  0  0  0  0  0  0  0  0  0
   -5.4350   22.0880   -7.0490 C   0  0  1  0  0  0  0  0  0  0  0  0
   -4.5060   21.3070   -7.7830 O   0  0  0  0  0  0  0  0  0  0  0  0
   -5.6810   21.5320   -5.7570 O   0  0  0  0  0  0  0  0  0  0  0  0
   -1.8360   20.4130   -8.0260 O   0  0  0  0  0  0  0  0  0  0  0  0
   -0.3420   19.8960   -7.6870 P   0  0  2  0  0  0  0  0  0  0  0  0
    0.7110   20.9450   -7.7170 O   0  0  0  0  0  0  0  0  0  0  0  0
   -0.0950   18.7310   -8.7610 O   0  0  0  0  0  0  0  0  0  0  0  0
   -0.4090   19.0810   -6.3250 O   0  0  0  0  0  0  0  0  0  0  0  0
   -1.6260   18.2030   -5.8440 P   0  0  2  0  0  0  0  0  0  0  0  0
   -0.9640   17.0120   -4.9950 O   0  0  0  0  0  0  0  0  0  0  0  0
   -2.6560   17.7770   -6.8270 O   0  0  0  0  0  0  0  0  0  0  0  0
   -2.1900   19.1210   -4.6660 O   0  0  0  0  0  0  0  0  0  0  0  0
    0.4560   16.9490   -4.8670 C   0  0  0  0  0  0  0  0  0  0  0  0
    0.8530   15.5600   -4.3410 C   0  0  1  0  0  0  0  0  0  0  0  0
    0.4050   15.4100   -2.9690 O   0  0  0  0  0  0  0  0  0  0  0  0
    0.2330   14.3700   -5.0770 C   0  0  1  0  0  0  0  0  0  0  0  0
    1.0210   13.1900   -5.0570 O   0  0  0  0  0  0  0  0  0  0  0  0
   -1.1020   14.2120   -4.3660 C   0  0  2  0  0  0  0  0  0  0  0  0
   -0.6020   14.3590   -2.9280 C   0  0  2  0  0  0  0  0  0  0  0  0
   -1.6800   12.9400   -4.6840 O   0  0  0  0  0  0  0  0  0  0  0  0
   -1.6030   14.6730   -1.9420 N   0  0  0  0  0  0  0  0  0  0  0  0
   -1.3640   14.6340   -0.6020 C   0  0  0  0  0  0  0  0  0  0  0  0
   -2.9090   15.0540   -2.1200 C   0  0  0  0  0  0  0  0  0  0  0  0
   -2.5590   15.0100   -0.0230 C   0  0  0  0  0  0  0  0  0  0  0  0
   -0.2150   14.3030   -0.0010 N   0  0  0  0  0  0  0  0  0  0  0  0
   -3.5170   15.2670   -0.9740 N   0  0  0  0  0  0  0  0  0  0  0  0
   -2.5840   15.0670    1.3580 C   0  0  0  0  0  0  0  0  0  0  0  0
   -0.3740   14.3800    1.3330 C   0  0  0  0  0  0  0  0  0  0  0  0
   -3.7120   15.4580    2.0610 N   0  0  0  0  0  0  0  0  0  0  0  0
   -1.4670   14.7340    2.0260 N   0  0  0  0  0  0  0  0  0  0  0  0
  1  2  1  0
  2  3  2  0
  2  4  1  0
  4  5  2  0
  3  6  1  0
  7  4  1  6
  5  8  1  0
  6  8  2  0
  7  9  1  0
  7 10  1  0
  9 11  1  6
 10 12  1  0
  9 13  1  0
 12 13  1  0
 11 14  1  0
 11 15  2  0
 12 16  1  0
 16 17  1  0
 17 18  1  0
 19 18  1  6
 19 20  1  0
 19 21  1  0
 20 22  1  6
 21 23  1  1
 20 24  1  0
 21 25  1  0
 24 25  1  0
 24 26  1  1
 23 27  1  0
 27 28  1  0
 28 29  2  0
 28 30  1  6
 28 31  1  0
 31 32  1  0
 32 33  1  0
 32 34  2  0
 32 35  1  1
 33 36  1  0
 37 36  1  6
 37 38  1  0
 37 39  1  0
 39 40  1  1
 39 41  1  0
 38 42  1  0
 41 42  1  0
 41 43  1  1
 42 44  1  1
 44 45  1  0
 44 46  1  0
 45 47  2  0
 45 48  1  0
 46 49  2  0
 47 49  1  0
 47 50  1  0
 48 51  2  0
 50 52  1  0
 50 53  2  0
 51 53  1  0
M  END
>  <%Rank>  (6) 
1.984127

>  <N_hits>  (6) 
2

>  <submitter_name>  (6) 
nan

>  <original SMILES>  (6) 
nan

>  <∆G_unbound>  (6) 
9.001651

>  <∆G_bound>  (6) 
-19.452981

>  <regarded>  (6) 
mArh-x0797_0_B,mArh-5dus_0_A

>  <ref_pdb>  (6) 
nan

>  <smiles>  (6) 
Cc1ccccc1C1CN(CCOC2C(CO[P@](=O)(O)O[P@](=O)(O)OCC3OC(n4cnc5c(N)ncnc54)C(O)C3O)OC(O)C2O)CC1C(=O)O

>  <submitter_email>  (6) 
nan

>  <disregarded>  (6) 


>  <LE>  (6) 
-0.53688

>  <submitter_institution>  (6) 
nan

>  <ref_mols>  (6) 
mArh-x0797_0_B,mArh-5dus_0_A

>  <N_constrained_atoms>  (6) 
51.0

>  <ref_url>  (6) 
nan

>  <method>  (6) 
nan

>  <comRMSD>  (6) 
0.56379

>  <N_unconstrained_atoms>  (6) 
2.0

>  <∆∆G>  (6) 
-28.454632

>  <runtime>  (6) 
59.953721

>  <generation_date>  (6) 
nan

$$$$
mArh-3q6z_0_A-mArh-x0797_0_B
     RDKit          3D

 53 58  0  0  0  0  0  0  0  0999 V2000
   -1.2520   18.2010   -5.8590 P   0  0  2  0  0  0  0  0  0  0  0  0
    0.0160   17.2460   -6.0470 O   0  0  0  0  0  0  0  0  0  0  0  0
    0.7770   16.7650   -4.9440 C   0  0  0  0  0  0  0  0  0  0  0  0
   -1.7840   18.3120   -4.4920 O   0  0  0  0  0  0  0  0  0  0  0  0
   -2.4000   17.5950   -6.8110 O   0  0  0  0  0  0  0  0  0  0  0  0
   -0.8970   19.5810   -6.4830 O   0  0  0  0  0  0  0  0  0  0  0  0
   -0.2730   19.8880   -7.8780 P   0  0  2  0  0  0  0  0  0  0  0  0
    0.1120   18.6980   -8.6930 O   0  0  0  0  0  0  0  0  0  0  0  0
    0.9800   20.8590   -7.6130 O   0  0  0  0  0  0  0  0  0  0  0  0
   -1.3970   20.7640   -8.5610 O   0  0  0  0  0  0  0  0  0  0  0  0
    0.0470   15.5610   -4.4050 C   0  0  2  0  0  0  0  0  0  0  0  0
   -1.9530   21.8850   -7.8900 C   0  0  0  0  0  0  0  0  0  0  0  0
   -0.4230   15.4630   -3.0570 O   0  0  0  0  0  0  0  0  0  0  0  0
    0.5020   14.1480   -4.7420 C   0  0  1  0  0  0  0  0  0  0  0  0
    1.6060   13.6340   -3.9950 O   0  0  0  0  0  0  0  0  0  0  0  0
   -0.8030   13.4670   -4.3130 C   0  0  2  0  0  0  0  0  0  0  0  0
   -1.4830   14.6400   -3.5640 C   0  0  1  0  0  0  0  0  0  0  0  0
   -3.3680   22.0990   -8.4440 C   0  0  2  0  0  0  0  0  0  0  0  0
   -0.5740   12.2440   -3.6480 O   0  0  0  0  0  0  0  0  0  0  0  0
   -3.9370   23.5070   -8.1790 C   0  0  1  0  0  0  0  0  0  0  0  0
   -4.1800   21.1590   -7.7490 O   0  0  0  0  0  0  0  0  0  0  0  0
   -2.7650   14.5890   -2.8830 N   0  0  0  0  0  0  0  0  0  0  0  0
   -4.7410   24.0440   -9.3030 O   0  0  0  0  0  0  0  0  0  0  0  0
   -5.1380   21.8350   -6.9630 C   0  0  1  0  0  0  0  0  0  0  0  0
   -4.6620   23.2740   -6.8490 C   0  0  2  0  0  0  0  0  0  0  0  0
   -3.1740   14.6190   -1.5710 C   0  0  0  0  0  0  0  0  0  0  0  0
   -3.8920   14.5110   -3.6600 C   0  0  0  0  0  0  0  0  0  0  0  0
   -6.3670   21.6900   -7.6610 O   0  0  0  0  0  0  0  0  0  0  0  0
   -5.7670   24.1620   -6.6660 O   0  0  0  0  0  0  0  0  0  0  0  0
   -6.2060   23.9920   -9.4350 C   0  0  0  0  0  0  0  0  0  0  0  0
   -4.5650   14.5650   -1.6590 C   0  0  0  0  0  0  0  0  0  0  0  0
   -2.4590   14.6890   -0.4310 N   0  0  0  0  0  0  0  0  0  0  0  0
   -4.9890   14.4930   -2.9620 N   0  0  0  0  0  0  0  0  0  0  0  0
   -6.9850   25.3610   -9.2880 C   0  0  0  0  0  0  0  0  0  0  0  0
   -5.2900   14.5950   -0.4660 C   0  0  0  0  0  0  0  0  0  0  0  0
   -3.2680   14.7060    0.6530 C   0  0  0  0  0  0  0  0  0  0  0  0
   -6.6760   14.5570   -0.4250 N   0  0  0  0  0  0  0  0  0  0  0  0
   -4.6170   14.6660    0.6980 N   0  0  0  0  0  0  0  0  0  0  0  0
   -7.7390   25.9470  -10.4420 N   0  0  0  0  0  0  0  0  0  0  0  0
   -8.0100   25.2100  -11.6870 C   0  0  0  0  0  0  0  0  0  0  0  0
   -7.6250   27.3900  -10.7540 C   0  0  0  0  0  0  0  0  0  0  0  0
   -8.1410   26.3320  -12.7530 C   0  0  1  0  0  0  0  0  0  0  0  0
   -7.1200   27.2890  -12.1760 C   0  0  1  0  0  0  0  0  0  0  0  0
   -7.6570   25.7760  -14.0760 C   0  0  0  0  0  0  0  0  0  0  0  0
   -6.3410   28.3490  -12.9390 C   0  0  0  0  0  0  0  0  0  0  0  0
   -8.4410   26.1460  -15.1110 O   0  0  0  0  0  0  0  0  0  0  0  0
   -6.6750   25.0780  -14.2630 O   0  0  0  0  0  0  0  0  0  0  0  0
   -6.8230   29.4030  -13.7690 C   0  0  0  0  0  0  0  0  0  0  0  0
   -4.9510   28.2290  -12.7880 C   0  0  0  0  0  0  0  0  0  0  0  0
   -8.2710   29.6910  -14.0580 C   0  0  0  0  0  0  0  0  0  0  0  0
   -4.0490   29.0790  -13.4020 C   0  0  0  0  0  0  0  0  0  0  0  0
   -5.8820   30.2580  -14.3870 C   0  0  0  0  0  0  0  0  0  0  0  0
   -4.5100   30.0970  -14.2040 C   0  0  0  0  0  0  0  0  0  0  0  0
  1  2  1  0
  2  3  1  0
  1  4  2  0
  1  5  1  6
  1  6  1  0
  6  7  1  0
  7  8  2  0
  7  9  1  1
  7 10  1  0
 11  3  1  1
 10 12  1  0
 11 13  1  0
 11 14  1  0
 14 15  1  1
 14 16  1  0
 13 17  1  0
 16 17  1  0
 18 12  1  1
 16 19  1  1
 18 20  1  0
 18 21  1  0
 17 22  1  1
 20 23  1  6
 21 24  1  0
 20 25  1  0
 24 25  1  0
 22 26  1  0
 22 27  1  0
 24 28  1  6
 25 29  1  6
 23 30  1  0
 26 31  2  0
 26 32  1  0
 27 33  2  0
 31 33  1  0
 30 34  1  0
 31 35  1  0
 32 36  2  0
 35 37  1  0
 35 38  2  0
 36 38  1  0
 34 39  1  0
 39 40  1  0
 39 41  1  0
 40 42  1  0
 41 43  1  0
 42 43  1  0
 42 44  1  6
 43 45  1  6
 44 46  1  0
 44 47  2  0
 45 48  2  0
 45 49  1  0
 48 50  1  0
 49 51  2  0
 48 52  1  0
 51 53  1  0
 52 53  2  0
M  END
>  <%Rank>  (7) 
2.380952

>  <N_hits>  (7) 
2

>  <submitter_name>  (7) 
nan

>  <original SMILES>  (7) 
nan

>  <∆G_unbound>  (7) 
11.46131

>  <∆G_bound>  (7) 
-17.338031

>  <regarded>  (7) 
mArh-3q6z_0_A,mArh-x0797_0_B

>  <ref_pdb>  (7) 
nan

>  <smiles>  (7) 
Cc1ccccc1C1CN(CCOC2C(CO[P@@](=O)(O)O[P@@](=O)(O)OCC3OC(n4cnc5c(N)ncnc54)C(O)C3O)OC(O)C2O)CC1C(=O)O

>  <submitter_email>  (7) 
nan

>  <disregarded>  (7) 


>  <LE>  (7) 
-0.543384

>  <submitter_institution>  (7) 
nan

>  <ref_mols>  (7) 
mArh-3q6z_0_A,mArh-x0797_0_B

>  <N_constrained_atoms>  (7) 
51.0

>  <ref_url>  (7) 
nan

>  <method>  (7) 
nan

>  <comRMSD>  (7) 
0.568277

>  <N_unconstrained_atoms>  (7) 
2.0

>  <∆∆G>  (7) 
-28.799341

>  <runtime>  (7) 
52.450381

>  <generation_date>  (7) 
nan

$$$$
mArh-5cb5_E_0_E-mArh-5cb5_B_0_B
     RDKit          3D

 36 39  0  0  0  0  0  0  0  0999 V2000
   -1.6010   18.3170   -6.2470 P   0  0  1  0  0  0  0  0  0  0  0  0
   -0.1800   17.5940   -6.3960 O   0  0  0  0  0  0  0  0  0  0  0  0
    0.4620   16.9530   -5.3060 C   0  0  0  0  0  0  0  0  0  0  0  0
   -2.7390   17.6010   -6.8780 O   0  0  0  0  0  0  0  0  0  0  0  0
   -1.7790   18.5540   -4.6790 O   0  0  0  0  0  0  0  0  0  0  0  0
   -1.3500   19.7700   -6.7770 O   0  0  0  0  0  0  0  0  0  0  0  0
   -0.3430   20.0070   -7.9750 P   0  0  1  0  0  0  0  0  0  0  0  0
    0.9210   20.7180   -7.6660 O   0  0  0  0  0  0  0  0  0  0  0  0
   -0.1520   18.5890   -8.6940 O   0  0  0  0  0  0  0  0  0  0  0  0
   -1.2830   20.7330   -9.0260 O   0  0  0  0  0  0  0  0  0  0  0  0
   -0.3820   15.8060   -4.7590 C   0  0  2  0  0  0  0  0  0  0  0  0
   -1.7990   21.9720   -8.6050 C   0  0  0  0  0  0  0  0  0  0  0  0
   -0.2380   15.6960   -3.3470 O   0  0  0  0  0  0  0  0  0  0  0  0
   -0.1590   14.3600   -5.2040 C   0  0  1  0  0  0  0  0  0  0  0  0
    1.1240   13.8650   -4.8010 O   0  0  0  0  0  0  0  0  0  0  0  0
   -1.2010   13.7020   -4.3230 C   0  0  2  0  0  0  0  0  0  0  0  0
   -0.8610   14.4380   -3.0210 C   0  0  2  0  0  0  0  0  0  0  0  0
   -3.2720   22.0890   -8.9660 C   0  0  2  0  0  0  0  0  0  0  0  0
   -1.0050   12.2980   -4.2560 O   0  0  0  0  0  0  0  0  0  0  0  0
   -3.7750   23.5040   -8.7200 C   0  0  1  0  0  0  0  0  0  0  0  0
   -4.0780   21.2160   -8.1490 O   0  0  0  0  0  0  0  0  0  0  0  0
   -1.8770   14.7000   -2.0480 N   0  0  0  0  0  0  0  0  0  0  0  0
   -4.4080   24.1370   -9.8100 O   0  0  0  0  0  0  0  0  0  0  0  0
   -5.2190   21.9370   -7.6800 C   0  0  2  0  0  0  0  0  0  0  0  0
   -4.7720   23.3830   -7.5850 C   0  0  2  0  0  0  0  0  0  0  0  0
   -1.6420   14.7370   -0.7290 C   0  0  0  0  0  0  0  0  0  0  0  0
   -3.2120   14.9660   -2.2540 C   0  0  0  0  0  0  0  0  0  0  0  0
   -5.6090   21.4960   -6.3780 O   0  0  0  0  0  0  0  0  0  0  0  0
   -5.8650   24.2550   -7.9280 O   0  0  0  0  0  0  0  0  0  0  0  0
   -2.8620   15.0410   -0.1560 C   0  0  0  0  0  0  0  0  0  0  0  0
   -0.4660   14.5300   -0.1240 N   0  0  0  0  0  0  0  0  0  0  0  0
   -3.8480   15.1810   -1.1180 N   0  0  0  0  0  0  0  0  0  0  0  0
   -2.8670   15.1540    1.2320 C   0  0  0  0  0  0  0  0  0  0  0  0
   -0.5960   14.6490    1.1940 C   0  0  0  0  0  0  0  0  0  0  0  0
   -4.0010   15.4800    1.9540 N   0  0  0  0  0  0  0  0  0  0  0  0
   -1.7070   14.9420    1.8960 N   0  0  0  0  0  0  0  0  0  0  0  0
  1  2  1  0
  2  3  1  0
  1  4  2  0
  1  5  1  1
  1  6  1  0
  6  7  1  0
  7  8  2  0
  7  9  1  6
  7 10  1  0
 11  3  1  6
 10 12  1  0
 11 13  1  0
 11 14  1  0
 14 15  1  1
 14 16  1  0
 13 17  1  0
 16 17  1  0
 18 12  1  1
 16 19  1  1
 18 20  1  0
 18 21  1  0
 17 22  1  6
 20 23  1  6
 21 24  1  0
 20 25  1  0
 24 25  1  0
 22 26  1  0
 22 27  1  0
 24 28  1  1
 25 29  1  6
 26 30  2  0
 26 31  1  0
 27 32  2  0
 30 32  1  0
 30 33  1  0
 31 34  2  0
 33 35  1  0
 33 36  2  0
 34 36  1  0
M  END
>  <%Rank>  (8) 
2.777778

>  <N_hits>  (8) 
2

>  <submitter_name>  (8) 
nan

>  <original SMILES>  (8) 
nan

>  <∆G_unbound>  (8) 
5.259261

>  <∆G_bound>  (8) 
-16.34341

>  <regarded>  (8) 
mArh-5cb5_E_0_E,mArh-5cb5_B_0_B

>  <ref_pdb>  (8) 
nan

>  <smiles>  (8) 
Nc1ncnc2c1ncn2C1OC(CO[P@@](=O)(O)O[P@@](=O)(O)OCC2OC(O)C(O)C2O)C(O)C1O

>  <submitter_email>  (8) 
nan

>  <disregarded>  (8) 


>  <LE>  (8) 
-0.600074

>  <submitter_institution>  (8) 
nan

>  <ref_mols>  (8) 
mArh-5cb5_E_0_E,mArh-5cb5_B_0_B

>  <N_constrained_atoms>  (8) 
36.0

>  <ref_url>  (8) 
nan

>  <method>  (8) 
nan

>  <comRMSD>  (8) 
0.518558

>  <N_unconstrained_atoms>  (8) 
0.0

>  <∆∆G>  (8) 
-21.602671

>  <runtime>  (8) 
32.474544

>  <generation_date>  (8) 
nan

$$$$
mArh-1hjz_A_0_A-mArh-x0805_0_A
     RDKit          3D

 32 34  0  0  0  0  0  0  0  0999 V2000
    1.1710   20.9350   -7.4700 O   0  0  0  0  0  0  0  0  0  0  0  0
    0.0030   20.1250   -7.8020 S   0  0  0  0  0  0  0  0  0  0  0  0
    0.1280   18.9980   -8.7090 O   0  0  0  0  0  0  0  0  0  0  0  0
   -0.6360   19.5780   -6.4070 O   0  0  0  0  0  0  0  0  0  0  0  0
   -1.3550   21.1570   -8.3220 C   0  0  0  0  0  0  0  0  0  0  0  0
   -2.0620   21.8890   -7.2200 C   0  0  0  0  0  0  0  0  0  0  0  0
   -0.7450   18.1750   -6.2660 C   0  0  0  0  0  0  0  0  0  0  0  0
   -0.1890   17.7150   -4.9150 C   0  0  0  0  0  0  0  0  0  0  0  0
   -3.4450   22.2620   -7.5810 N   0  0  0  0  0  0  0  0  0  0  0  0
    1.1000   16.8820   -4.9100 C   0  0  0  0  0  0  0  0  0  0  0  0
   -3.5700   22.5990   -8.9150 C   0  0  0  0  0  0  0  0  0  0  0  0
   -3.8700   23.4350   -6.7750 C   0  0  0  0  0  0  0  0  0  0  0  0
   -4.9490   23.1450   -9.2890 C   0  0  0  0  0  0  0  0  0  0  0  0
   -5.1730   23.8040   -7.0020 C   0  0  0  0  0  0  0  0  0  0  0  0
    0.9720   15.3680   -4.6940 C   0  0  1  0  0  0  0  0  0  0  0  0
   -5.4250   24.1370   -8.3730 O   0  0  0  0  0  0  0  0  0  0  0  0
    2.1300   14.5940   -4.3700 O   0  0  0  0  0  0  0  0  0  0  0  0
    0.0510   15.1500   -3.5670 C   0  0  0  0  0  0  0  0  0  0  0  0
    1.8590   13.1560   -4.3220 C   0  0  0  0  0  0  0  0  0  0  0  0
   -0.6080   13.8400   -3.8810 C   0  0  2  0  0  0  0  0  0  0  0  0
   -1.8750   13.7510   -3.0760 C   0  0  0  0  0  0  0  0  0  0  0  0
    0.4310   12.6840   -3.8410 C   0  0  2  0  0  0  0  0  0  0  0  0
    0.5080   12.0160   -2.4650 C   0  0  0  0  0  0  0  0  0  0  0  0
   -2.8880   12.8370   -3.3720 C   0  0  0  0  0  0  0  0  0  0  0  0
   -2.0460   14.6320   -1.9930 C   0  0  0  0  0  0  0  0  0  0  0  0
    0.4080   10.6580   -2.5170 O   0  0  0  0  0  0  0  0  0  0  0  0
    0.6300   12.5520   -1.3740 O   0  0  0  0  0  0  0  0  0  0  0  0
   -3.1840   14.6590   -1.1840 C   0  0  0  0  0  0  0  0  0  0  0  0
   -4.0490   12.7920   -2.6180 C   0  0  0  0  0  0  0  0  0  0  0  0
   -3.3550   15.5240   -0.1320 O   0  0  0  0  0  0  0  0  0  0  0  0
   -4.2210   13.7620   -1.4460 C   0  0  0  0  0  0  0  0  0  0  0  0
   -4.4100   15.2760    0.7860 C   0  0  0  0  0  0  0  0  0  0  0  0
  1  2  2  0
  2  3  2  0
  2  4  1  0
  2  5  1  0
  5  6  1  0
  4  7  1  0
  7  8  1  0
  6  9  1  0
  8 10  1  0
  9 11  1  0
  9 12  1  0
 11 13  1  0
 12 14  1  0
 15 10  1  1
 13 16  1  0
 14 16  1  0
 15 17  1  0
 15 18  1  0
 17 19  1  0
 18 20  1  0
 20 21  1  1
 19 22  1  0
 20 22  1  0
 22 23  1  1
 21 24  2  0
 21 25  1  0
 23 26  1  0
 23 27  2  0
 25 28  2  0
 24 29  1  0
 28 30  1  0
 28 31  1  0
 29 31  2  0
 30 32  1  0
M  END
>  <%Rank>  (9) 
3.174603

>  <N_hits>  (9) 
2

>  <submitter_name>  (9) 
nan

>  <original SMILES>  (9) 
nan

>  <∆G_unbound>  (9) 
4.855815

>  <∆G_bound>  (9) 
-13.583341

>  <regarded>  (9) 
mArh-1hjz_A_0_A,mArh-x0805_0_A

>  <ref_pdb>  (9) 
nan

>  <smiles>  (9) 
COc1cccc(C2CC(CCCOS(=O)(=O)CCN3CCOCC3)OCC2C(=O)O)c1

>  <submitter_email>  (9) 
nan

>  <disregarded>  (9) 


>  <LE>  (9) 
-0.576224

>  <submitter_institution>  (9) 
nan

>  <ref_mols>  (9) 
mArh-1hjz_A_0_A,mArh-x0805_0_A

>  <N_constrained_atoms>  (9) 
29.0

>  <ref_url>  (9) 
nan

>  <method>  (9) 
nan

>  <comRMSD>  (9) 
0.385381

>  <N_unconstrained_atoms>  (9) 
3.0

>  <∆∆G>  (9) 
-18.439156

>  <runtime>  (9) 
44.569543

>  <generation_date>  (9) 
nan

$$$$
mArh-6fx_7_0A-mArh-x0159_0_B
     RDKit          3D

 58 64  0  0  0  0  0  0  0  0999 V2000
   -1.5950   18.4250   -5.8940 P   0  0  2  0  0  0  0  0  0  0  0  0
   -0.9990   16.9350   -5.6920 O   0  0  0  0  0  0  0  0  0  0  0  0
    0.3490   16.7830   -5.2270 C   0  0  0  0  0  0  0  0  0  0  0  0
   -2.1940   19.0230   -4.6870 O   0  0  0  0  0  0  0  0  0  0  0  0
   -2.6540   18.2010   -7.0590 O   0  0  0  0  0  0  0  0  0  0  0  0
   -0.4950   19.3590   -6.5090 O   0  0  0  0  0  0  0  0  0  0  0  0
   -0.3910   19.8920   -7.9720 P   0  0  2  0  0  0  0  0  0  0  0  0
   -0.0200   18.7990   -8.9140 O   0  0  0  0  0  0  0  0  0  0  0  0
    0.7450   21.0110   -7.8730 O   0  0  0  0  0  0  0  0  0  0  0  0
   -1.7370   20.7250   -8.3570 O   0  0  0  0  0  0  0  0  0  0  0  0
    0.5630   15.4190   -4.5180 C   0  0  1  0  0  0  0  0  0  0  0  0
   -1.9310   22.0370   -7.7970 C   0  0  0  0  0  0  0  0  0  0  0  0
   -0.0690   15.4650   -3.2250 O   0  0  0  0  0  0  0  0  0  0  0  0
   -0.0270   14.1450   -5.1790 C   0  0  1  0  0  0  0  0  0  0  0  0
    0.7460   12.9650   -4.8890 O   0  0  0  0  0  0  0  0  0  0  0  0
   -1.3780   13.9150   -4.4950 C   0  0  2  0  0  0  0  0  0  0  0  0
   -1.4210   15.0550   -3.4830 C   0  0  1  0  0  0  0  0  0  0  0  0
   -3.3400   22.6540   -8.0440 C   0  0  2  0  0  0  0  0  0  0  0  0
   -1.3910   12.6190   -3.8690 O   0  0  0  0  0  0  0  0  0  0  0  0
    1.5060   12.5160   -6.0060 C   0  0  0  0  0  0  0  0  0  0  0  0
   -4.5780   21.7390   -7.9340 C   0  0  1  0  0  0  0  0  0  0  0  0
   -3.4840   23.3210   -9.3330 O   0  0  0  0  0  0  0  0  0  0  0  0
   -2.2030   15.0580   -2.2510 N   0  0  0  0  0  0  0  0  0  0  0  0
   -5.2680   21.8900   -6.7040 O   0  0  0  0  0  0  0  0  0  0  0  0
    0.7240   11.4990   -6.8740 C   0  0  0  0  0  0  0  0  0  0  0  0
   -4.3770   22.5070  -10.1030 C   0  0  1  0  0  0  0  0  0  0  0  0
   -5.4480   22.1830   -9.1070 C   0  0  2  0  0  0  0  0  0  0  0  0
   -1.7860   14.9110   -0.9340 C   0  0  0  0  0  0  0  0  0  0  0  0
   -3.5560   15.2690   -2.2270 C   0  0  0  0  0  0  0  0  0  0  0  0
   -4.8670   23.1810  -11.2580 O   0  0  0  0  0  0  0  0  0  0  0  0
   -6.1730   23.3870   -8.7980 O   0  0  0  0  0  0  0  0  0  0  0  0
    1.6120   10.8730   -7.9660 C   0  0  0  0  0  0  0  0  0  0  0  0
   -2.9510   15.0950   -0.2020 C   0  0  0  0  0  0  0  0  0  0  0  0
   -0.5560   14.6780   -0.4250 N   0  0  0  0  0  0  0  0  0  0  0  0
   -4.0370   15.2950   -1.0170 N   0  0  0  0  0  0  0  0  0  0  0  0
    0.8770   10.4600   -9.2530 C   0  0  0  0  0  0  0  0  0  0  0  0
   -2.8500   15.0690    1.1790 C   0  0  0  0  0  0  0  0  0  0  0  0
   -0.5920   14.6460    0.9310 C   0  0  0  0  0  0  0  0  0  0  0  0
   -3.9600   15.3110    1.9480 N   0  0  0  0  0  0  0  0  0  0  0  0
    1.4970    9.2640   -9.8920 N   0  0  0  0  0  0  0  0  0  0  0  0
   -1.6470   14.8230    1.7480 N   0  0  0  0  0  0  0  0  0  0  0  0
    1.8220    8.1410   -9.0030 C   0  0  0  0  0  0  0  0  0  0  0  0
    2.2190    9.4850  -11.0300 C   0  0  0  0  0  0  0  0  0  0  0  0
    0.9590    6.9260   -9.3510 C   0  0  0  0  0  0  0  0  0  0  0  0
    2.0760   10.6380  -11.7570 N   0  0  0  0  0  0  0  0  0  0  0  0
    3.1230    8.7020  -11.5950 N   0  0  0  0  0  0  0  0  0  0  0  0
    3.5800    9.3820  -12.7020 C   0  0  0  0  0  0  0  0  0  0  0  0
    2.9330   10.6040  -12.8230 C   0  0  0  0  0  0  0  0  0  0  0  0
    1.3860    5.7360   -8.5440 C   0  0  0  0  0  0  0  0  0  0  0  0
    2.3100    4.8190   -9.0530 C   0  0  0  0  0  0  0  0  0  0  0  0
    0.8580    5.5390   -7.2690 C   0  0  0  0  0  0  0  0  0  0  0  0
    3.1840   11.5190  -13.8420 C   0  0  0  0  0  0  0  0  0  0  0  0
    4.5530    9.0230  -13.6490 C   0  0  0  0  0  0  0  0  0  0  0  0
    2.7010    3.7230   -8.2960 C   0  0  0  0  0  0  0  0  0  0  0  0
    1.2460    4.4500   -6.5150 C   0  0  0  0  0  0  0  0  0  0  0  0
    4.1540   11.1510  -14.7760 C   0  0  0  0  0  0  0  0  0  0  0  0
    4.8290    9.9280  -14.6860 C   0  0  0  0  0  0  0  0  0  0  0  0
    2.1740    3.5420   -7.0350 C   0  0  0  0  0  0  0  0  0  0  0  0
  1  2  1  0
  2  3  1  0
  1  4  2  0
  1  5  1  6
  1  6  1  0
  6  7  1  0
  7  8  2  0
  7  9  1  1
  7 10  1  0
 11  3  1  6
 10 12  1  0
 11 13  1  0
 11 14  1  0
 14 15  1  1
 14 16  1  0
 13 17  1  0
 16 17  1  0
 18 12  1  6
 16 19  1  1
 15 20  1  0
 18 21  1  0
 18 22  1  0
 17 23  1  1
 21 24  1  1
 20 25  1  0
 22 26  1  0
 21 27  1  0
 26 27  1  0
 23 28  1  0
 23 29  1  0
 26 30  1  6
 27 31  1  1
 25 32  1  0
 28 33  2  0
 28 34  1  0
 29 35  2  0
 33 35  1  0
 32 36  1  0
 33 37  1  0
 34 38  2  0
 37 39  1  0
 36 40  1  0
 37 41  2  0
 38 41  1  0
 40 42  1  0
 40 43  1  0
 42 44  1  0
 43 45  1  0
 43 46  2  0
 46 47  1  0
 45 48  1  0
 47 48  2  0
 44 49  1  0
 49 50  2  0
 49 51  1  0
 48 52  1  0
 47 53  1  0
 50 54  1  0
 51 55  2  0
 52 56  2  0
 53 57  2  0
 56 57  1  0
 54 58  2  0
 55 58  1  0
M  END
>  <%Rank>  (10) 
3.571429

>  <N_hits>  (10) 
2

>  <submitter_name>  (10) 
nan

>  <original SMILES>  (10) 
nan

>  <∆G_unbound>  (10) 
2.899648

>  <∆G_bound>  (10) 
-20.075168

>  <regarded>  (10) 
mArh-6fx_7_0A,mArh-x0159_0_B

>  <ref_pdb>  (10) 
nan

>  <smiles>  (10) 
Nc1ncnc2c1ncn2C1OC(CO[P@](=O)(O)O[P@](=O)(O)OCC2OC(O)C(O)C2O)C(OCCCCN(CCc2ccccc2)c2nc3ccccc3[nH]2)C1O

>  <submitter_email>  (10) 
nan

>  <disregarded>  (10) 


>  <LE>  (10) 
-0.396118

>  <submitter_institution>  (10) 
nan

>  <ref_mols>  (10) 
mArh-6fx_7_0A,mArh-x0159_0_B

>  <N_constrained_atoms>  (10) 
54.0

>  <ref_url>  (10) 
nan

>  <method>  (10) 
nan

>  <comRMSD>  (10) 
0.519455

>  <N_unconstrained_atoms>  (10) 
4.0

>  <∆∆G>  (10) 
-22.974816

>  <runtime>  (10) 
61.229811

>  <generation_date>  (10) 
nan

$$$$
mArh-x0417_0_B-mArh-5cb5_O_0_O
     RDKit          3D

 55 60  0  0  0  0  0  0  0  0999 V2000
   -2.6470   31.2500  -17.2050 N   0  0  0  0  0  0  0  0  0  0  0  0
   -1.4360   31.8850  -17.7070 C   0  0  0  0  0  0  0  0  0  0  0  0
   -2.4550   30.5740  -15.9070 C   0  0  2  0  0  0  0  0  0  0  0  0
   -2.5120   29.0520  -15.9620 C   0  0  0  0  0  0  0  0  0  0  0  0
   -3.6570   30.9310  -15.0110 C   0  0  0  0  0  0  0  0  0  0  0  0
   -3.9700   32.0820  -14.8020 O   0  0  0  0  0  0  0  0  0  0  0  0
   -3.2710   28.6780  -14.7120 C   0  0  0  0  0  0  0  0  0  0  0  0
   -4.2370   29.7380  -14.5490 N   0  0  0  0  0  0  0  0  0  0  0  0
   -5.3130   29.6360  -13.6060 C   0  0  0  0  0  0  0  0  0  0  0  0
   -6.5680   30.1700  -13.9330 C   0  0  0  0  0  0  0  0  0  0  0  0
   -5.1840   29.0220  -12.3550 C   0  0  0  0  0  0  0  0  0  0  0  0
   -3.9750   28.4980  -12.1070 O   0  0  0  0  0  0  0  0  0  0  0  0
   -7.6510   30.1030  -13.0510 C   0  0  0  0  0  0  0  0  0  0  0  0
   -6.2650   28.9630  -11.4690 C   0  0  0  0  0  0  0  0  0  0  0  0
   -3.8390   27.1770  -12.6490 C   0  0  0  0  0  0  0  0  0  0  0  0
   -7.4970   29.5020  -11.8160 C   0  0  0  0  0  0  0  0  0  0  0  0
   -5.0370   26.3320  -12.2000 C   0  0  0  0  0  0  0  0  0  0  0  0
   -4.5540   24.9930  -11.6620 C   0  0  0  0  0  0  0  0  0  0  0  0
   -5.4870   24.3290  -10.6470 C   0  0  0  0  0  0  0  0  0  0  0  0
   -4.8890   23.1760  -10.0280 O   0  0  0  0  0  0  0  0  0  0  0  0
   -4.0110   23.2490   -8.8680 C   0  0  1  0  0  0  0  0  0  0  0  0
   -4.7570   23.2340   -7.5450 C   0  0  1  0  0  0  0  0  0  0  0  0
   -3.4120   21.8380   -8.8030 C   0  0  1  0  0  0  0  0  0  0  0  0
   -5.7380   24.2550   -7.4090 O   0  0  0  0  0  0  0  0  0  0  0  0
   -2.1170   21.6590   -7.9950 C   0  0  0  0  0  0  0  0  0  0  0  0
   -5.3930   21.8550   -7.5850 C   0  0  1  0  0  0  0  0  0  0  0  0
   -4.4300   21.0050   -8.1930 O   0  0  0  0  0  0  0  0  0  0  0  0
   -5.6580   21.4230   -6.2670 O   0  0  0  0  0  0  0  0  0  0  0  0
   -1.6700   20.3340   -8.2450 O   0  0  0  0  0  0  0  0  0  0  0  0
   -0.1960   19.8770   -7.8420 P   0  0  2  0  0  0  0  0  0  0  0  0
    0.8340   20.9490   -7.8640 O   0  0  0  0  0  0  0  0  0  0  0  0
    0.0680   18.6980   -8.8880 O   0  0  0  0  0  0  0  0  0  0  0  0
   -0.3420   19.1240   -6.4640 O   0  0  0  0  0  0  0  0  0  0  0  0
   -1.5680   18.2430   -6.0150 P   0  0  2  0  0  0  0  0  0  0  0  0
   -0.9200   16.9550   -5.3260 O   0  0  0  0  0  0  0  0  0  0  0  0
   -2.5410   17.9330   -7.0840 O   0  0  0  0  0  0  0  0  0  0  0  0
   -2.1540   19.0820   -4.8040 O   0  0  0  0  0  0  0  0  0  0  0  0
    0.4860   16.9460   -5.0830 C   0  0  0  0  0  0  0  0  0  0  0  0
    0.8900   15.6390   -4.3790 C   0  0  1  0  0  0  0  0  0  0  0  0
    0.1960   15.5820   -3.1150 O   0  0  0  0  0  0  0  0  0  0  0  0
    0.4690   14.3620   -5.1310 C   0  0  1  0  0  0  0  0  0  0  0  0
    1.5260   13.4050   -5.1080 O   0  0  0  0  0  0  0  0  0  0  0  0
   -0.7480   13.8120   -4.3730 C   0  0  2  0  0  0  0  0  0  0  0  0
   -1.0560   14.9540   -3.4090 C   0  0  1  0  0  0  0  0  0  0  0  0
   -0.5430   12.4980   -3.8770 O   0  0  0  0  0  0  0  0  0  0  0  0
   -1.9470   14.9510   -2.2540 N   0  0  0  0  0  0  0  0  0  0  0  0
   -1.6110   14.8660   -0.9070 C   0  0  0  0  0  0  0  0  0  0  0  0
   -3.3060   15.0700   -2.3070 C   0  0  0  0  0  0  0  0  0  0  0  0
   -2.8310   14.9760   -0.2420 C   0  0  0  0  0  0  0  0  0  0  0  0
   -0.4010   14.7340   -0.3300 N   0  0  0  0  0  0  0  0  0  0  0  0
   -3.8690   15.0890   -1.1250 N   0  0  0  0  0  0  0  0  0  0  0  0
   -2.8150   14.9680    1.1540 C   0  0  0  0  0  0  0  0  0  0  0  0
   -0.5150   14.7200    1.0180 C   0  0  0  0  0  0  0  0  0  0  0  0
   -3.9750   15.1170    1.8880 N   0  0  0  0  0  0  0  0  0  0  0  0
   -1.6280   14.8250    1.7830 N   0  0  0  0  0  0  0  0  0  0  0  0
  1  2  1  0
  3  1  1  6
  3  4  1  0
  3  5  1  0
  5  6  2  0
  4  7  1  0
  5  8  1  0
  7  8  1  0
  8  9  1  0
  9 10  2  0
  9 11  1  0
 11 12  1  0
 10 13  1  0
 11 14  2  0
 12 15  1  0
 13 16  2  0
 14 16  1  0
 15 17  1  0
 17 18  1  0
 18 19  1  0
 19 20  1  0
 21 20  1  6
 21 22  1  0
 21 23  1  0
 22 24  1  6
 23 25  1  1
 22 26  1  0
 23 27  1  0
 26 27  1  0
 26 28  1  1
 25 29  1  0
 29 30  1  0
 30 31  2  0
 30 32  1  6
 30 33  1  0
 33 34  1  0
 34 35  1  0
 34 36  2  0
 34 37  1  1
 35 38  1  0
 39 38  1  6
 39 40  1  0
 39 41  1  0
 41 42  1  1
 41 43  1  0
 40 44  1  0
 43 44  1  0
 43 45  1  1
 44 46  1  1
 46 47  1  0
 46 48  1  0
 47 49  2  0
 47 50  1  0
 48 51  2  0
 49 51  1  0
 49 52  1  0
 50 53  2  0
 52 54  1  0
 52 55  2  0
 53 55  1  0
M  END
>  <%Rank>  (11) 
3.968254

>  <N_hits>  (11) 
2

>  <submitter_name>  (11) 
nan

>  <original SMILES>  (11) 
nan

>  <∆G_unbound>  (11) 
5.009507

>  <∆G_bound>  (11) 
-20.288258

>  <regarded>  (11) 
mArh-x0417_0_B,mArh-5cb5_O_0_O

>  <ref_pdb>  (11) 
nan

>  <smiles>  (11) 
CNC1CCN(c2ccccc2OCCCCOC2C(CO[P@](=O)(O)O[P@](=O)(O)OCC3OC(n4cnc5c(N)ncnc54)C(O)C3O)OC(O)C2O)C1=O

>  <submitter_email>  (11) 
nan

>  <disregarded>  (11) 


>  <LE>  (11) 
-0.459959

>  <submitter_institution>  (11) 
nan

>  <ref_mols>  (11) 
mArh-x0417_0_B,mArh-5cb5_O_0_O

>  <N_constrained_atoms>  (11) 
51.0

>  <ref_url>  (11) 
nan

>  <method>  (11) 
nan

>  <comRMSD>  (11) 
0.534819

>  <N_unconstrained_atoms>  (11) 
4.0

>  <∆∆G>  (11) 
-25.297765

>  <runtime>  (11) 
99.303037

>  <generation_date>  (11) 
nan

$$$$
mArh-5cb5_R_0_R-mArh-x0950_1_A
     RDKit          3D

 41 44  0  0  0  0  0  0  0  0999 V2000
   -1.3210   18.1330   -6.1300 P   0  0  1  0  0  0  0  0  0  0  0  0
    0.1060   17.3970   -6.2800 O   0  0  0  0  0  0  0  0  0  0  0  0
    0.8190   16.7380   -5.2300 C   0  0  0  0  0  0  0  0  0  0  0  0
   -2.4700   17.4720   -6.8130 O   0  0  0  0  0  0  0  0  0  0  0  0
   -1.5670   18.2600   -4.5650 O   0  0  0  0  0  0  0  0  0  0  0  0
   -1.0560   19.6220   -6.5440 O   0  0  0  0  0  0  0  0  0  0  0  0
   -0.2950   19.9630   -7.8770 P   0  0  1  0  0  0  0  0  0  0  0  0
    0.9640   20.7310   -7.6800 O   0  0  0  0  0  0  0  0  0  0  0  0
   -0.0400   18.5960   -8.6860 O   0  0  0  0  0  0  0  0  0  0  0  0
   -1.3770   20.6960   -8.7630 O   0  0  0  0  0  0  0  0  0  0  0  0
    0.0210   15.5550   -4.7000 C   0  0  2  0  0  0  0  0  0  0  0  0
   -1.9720   21.8120   -8.1260 C   0  0  0  0  0  0  0  0  0  0  0  0
   -0.1710   15.5690   -3.2910 O   0  0  0  0  0  0  0  0  0  0  0  0
    0.0940   14.0170   -4.9740 C   0  0  1  0  0  0  0  0  0  0  0  0
    1.2550   13.0360   -4.6280 C   0  0  2  0  0  0  0  0  0  0  0  0
   -1.2600   13.6600   -4.3440 C   0  0  2  0  0  0  0  0  0  0  0  0
   -1.4060   14.8490   -3.3590 C   0  0  1  0  0  0  0  0  0  0  0  0
   -3.3330   22.1160   -8.7170 C   0  0  2  0  0  0  0  0  0  0  0  0
   -1.2520   12.3380   -3.8320 O   0  0  0  0  0  0  0  0  0  0  0  0
    2.6790   13.5090   -4.3910 C   0  0  0  0  0  0  0  0  0  0  0  0
    1.2530   12.0990   -5.7220 O   0  0  0  0  0  0  0  0  0  0  0  0
    0.9260   12.1830   -3.3720 C   0  0  0  0  0  0  0  0  0  0  0  0
   -3.8320   23.4840   -8.3610 C   0  0  1  0  0  0  0  0  0  0  0  0
   -4.3490   21.2560   -8.2180 O   0  0  0  0  0  0  0  0  0  0  0  0
   -2.1220   14.9210   -2.1320 N   0  0  0  0  0  0  0  0  0  0  0  0
   -4.7550   24.0000   -9.3220 O   0  0  0  0  0  0  0  0  0  0  0  0
    0.3450   11.1110   -3.3050 O   0  0  0  0  0  0  0  0  0  0  0  0
    1.3870   12.7550   -2.2290 O   0  0  0  0  0  0  0  0  0  0  0  0
   -5.1410   21.9710   -7.2740 C   0  0  2  0  0  0  0  0  0  0  0  0
   -4.5220   23.1660   -7.0370 C   0  0  2  0  0  0  0  0  0  0  0  0
   -1.7150   14.8660   -0.8280 C   0  0  0  0  0  0  0  0  0  0  0  0
   -3.4790   15.1180   -2.1390 C   0  0  0  0  0  0  0  0  0  0  0  0
   -5.2530   21.2640   -6.0470 O   0  0  0  0  0  0  0  0  0  0  0  0
   -5.4350   24.1810   -6.6290 O   0  0  0  0  0  0  0  0  0  0  0  0
   -2.8830   15.0720   -0.1140 C   0  0  0  0  0  0  0  0  0  0  0  0
   -0.4850   14.6860   -0.3170 N   0  0  0  0  0  0  0  0  0  0  0  0
   -3.9680   15.2110   -0.9410 N   0  0  0  0  0  0  0  0  0  0  0  0
   -2.7820   15.1200    1.2640 C   0  0  0  0  0  0  0  0  0  0  0  0
   -0.5190   14.7270    1.0340 C   0  0  0  0  0  0  0  0  0  0  0  0
   -3.8860   15.3770    2.0290 N   0  0  0  0  0  0  0  0  0  0  0  0
   -1.5820   14.9270    1.8400 N   0  0  0  0  0  0  0  0  0  0  0  0
  1  2  1  0
  2  3  1  0
  1  4  2  0
  1  5  1  1
  1  6  1  0
  6  7  1  0
  7  8  2  0
  7  9  1  6
  7 10  1  0
 11  3  1  1
 10 12  1  0
 11 13  1  0
 11 14  1  0
 14 15  1  1
 14 16  1  0
 13 17  1  0
 16 17  1  0
 18 12  1  1
 16 19  1  1
 15 20  1  1
 15 21  1  0
 15 22  1  0
 18 23  1  0
 18 24  1  0
 17 25  1  1
 23 26  1  6
 22 27  2  0
 22 28  1  0
 24 29  1  0
 23 30  1  0
 29 30  1  0
 25 31  1  0
 25 32  1  0
 29 33  1  1
 30 34  1  6
 31 35  2  0
 31 36  1  0
 32 37  2  0
 35 37  1  0
 35 38  1  0
 36 39  2  0
 38 40  1  0
 38 41  2  0
 39 41  1  0
M  END
>  <%Rank>  (12) 
4.365079

>  <N_hits>  (12) 
2

>  <submitter_name>  (12) 
nan

>  <original SMILES>  (12) 
nan

>  <∆G_unbound>  (12) 
6.779079

>  <∆G_bound>  (12) 
-14.957261

>  <regarded>  (12) 
mArh-5cb5_R_0_R,mArh-x0950_1_A

>  <ref_pdb>  (12) 
nan

>  <smiles>  (12) 
CC(O)(C(=O)O)C1C(CO[P@@](=O)(O)O[P@@](=O)(O)OCC2OC(O)C(O)C2O)OC(n2cnc3c(N)ncnc32)C1O

>  <submitter_email>  (12) 
nan

>  <disregarded>  (12) 


>  <LE>  (12) 
-0.530155

>  <submitter_institution>  (12) 
nan

>  <ref_mols>  (12) 
mArh-5cb5_R_0_R,mArh-x0950_1_A

>  <N_constrained_atoms>  (12) 
41.0

>  <ref_url>  (12) 
nan

>  <method>  (12) 
nan

>  <comRMSD>  (12) 
0.547522

>  <N_unconstrained_atoms>  (12) 
0.0

>  <∆∆G>  (12) 
-21.736341

>  <runtime>  (12) 
38.441084

>  <generation_date>  (12) 
nan

$$$$
mArh-5l9k_A_0_A-mArh-x0128_0_A
     RDKit          3D

 53 58  0  0  0  0  0  0  0  0999 V2000
   -2.1130   18.0980   -5.9950 P   0  0  2  0  0  0  0  0  0  0  0  0
   -1.0460   16.9430   -6.1760 O   0  0  0  0  0  0  0  0  0  0  0  0
    0.0870   16.9420   -5.3310 C   0  0  0  0  0  0  0  0  0  0  0  0
   -2.5610   18.2000   -4.6220 O   0  0  0  0  0  0  0  0  0  0  0  0
   -3.2220   17.5980   -6.9950 O   0  0  0  0  0  0  0  0  0  0  0  0
   -1.5360   19.4210   -6.6180 O   0  0  0  0  0  0  0  0  0  0  0  0
   -0.8680   19.6090   -8.0390 P   0  0  2  0  0  0  0  0  0  0  0  0
   -0.4490   18.3960   -8.7710 O   0  0  0  0  0  0  0  0  0  0  0  0
    0.3350   20.6150   -7.7410 O   0  0  0  0  0  0  0  0  0  0  0  0
   -1.9100   20.5320   -8.8320 O   0  0  0  0  0  0  0  0  0  0  0  0
    0.1030   15.7180   -4.4190 C   0  0  1  0  0  0  0  0  0  0  0  0
   -2.4150   21.7140   -8.2350 C   0  0  0  0  0  0  0  0  0  0  0  0
   -0.5620   15.9940   -3.1580 O   0  0  0  0  0  0  0  0  0  0  0  0
   -0.5780   14.4650   -4.9880 C   0  0  1  0  0  0  0  0  0  0  0  0
    0.0630   13.2620   -4.5680 O   0  0  0  0  0  0  0  0  0  0  0  0
   -1.9460   14.5750   -4.3380 C   0  0  2  0  0  0  0  0  0  0  0  0
   -1.4320   14.8800   -2.9230 C   0  0  2  0  0  0  0  0  0  0  0  0
   -3.7850   22.1120   -8.8090 C   0  0  2  0  0  0  0  0  0  0  0  0
   -2.6490   13.3310   -4.5110 O   0  0  0  0  0  0  0  0  0  0  0  0
   -4.2620   23.5270   -8.4400 C   0  0  1  0  0  0  0  0  0  0  0  0
   -4.7760   21.2400   -8.2770 O   0  0  0  0  0  0  0  0  0  0  0  0
   -2.3500   15.2240   -1.8540 N   0  0  0  0  0  0  0  0  0  0  0  0
   -4.8230   24.1610   -9.5850 O   0  0  0  0  0  0  0  0  0  0  0  0
   -5.3640   21.8920   -7.1630 C   0  0  1  0  0  0  0  0  0  0  0  0
   -5.4720   23.3580   -7.5440 C   0  0  1  0  0  0  0  0  0  0  0  0
   -2.0640   15.2030   -0.5240 C   0  0  0  0  0  0  0  0  0  0  0  0
   -3.6550   15.6480   -1.9720 C   0  0  0  0  0  0  0  0  0  0  0  0
   -6.6370   21.3380   -6.9560 O   0  0  0  0  0  0  0  0  0  0  0  0
   -5.5390   24.2620   -6.4420 O   0  0  0  0  0  0  0  0  0  0  0  0
   -3.2130   15.6000    0.1300 C   0  0  0  0  0  0  0  0  0  0  0  0
   -0.8880   14.8530    0.0120 N   0  0  0  0  0  0  0  0  0  0  0  0
   -4.2080   15.8890   -0.7950 N   0  0  0  0  0  0  0  0  0  0  0  0
   -3.1670   15.6350    1.5480 C   0  0  0  0  0  0  0  0  0  0  0  0
   -0.9390   14.9020    1.3340 C   0  0  0  0  0  0  0  0  0  0  0  0
   -4.2650   16.0430    2.3740 N   0  0  0  0  0  0  0  0  0  0  0  0
   -1.9820   15.2510    2.0940 N   0  0  0  0  0  0  0  0  0  0  0  0
   -5.0220   15.1200    3.2380 C   0  0  0  0  0  0  0  0  0  0  0  0
   -6.3290   14.7860    2.6470 N   0  0  0  0  0  0  0  0  0  0  0  0
   -7.5730   15.2370    3.1680 C   0  0  0  0  0  0  0  0  0  0  0  0
   -6.0950   14.6990    1.2510 C   0  0  0  0  0  0  0  0  0  0  0  0
   -8.5540   15.5310    2.4770 O   0  0  0  0  0  0  0  0  0  0  0  0
   -7.6050   15.3320    4.5490 N   0  0  0  0  0  0  0  0  0  0  0  0
   -7.0610   14.9590    0.2720 C   0  0  0  0  0  0  0  0  0  0  0  0
   -4.8250   14.3440    0.8320 C   0  0  0  0  0  0  0  0  0  0  0  0
   -6.7400   14.8730   -1.0850 C   0  0  0  0  0  0  0  0  0  0  0  0
   -4.5040   14.2490   -0.5130 C   0  0  0  0  0  0  0  0  0  0  0  0
   -8.4480   16.1540    5.3230 C   0  0  0  0  0  0  0  0  0  0  0  0
   -5.4610   14.5180   -1.4770 C   0  0  0  0  0  0  0  0  0  0  0  0
   -9.0990   17.2960    4.8710 C   0  0  0  0  0  0  0  0  0  0  0  0
   -8.6510   15.7920    6.6580 C   0  0  0  0  0  0  0  0  0  0  0  0
   -9.9120   18.0650    5.6410 N   0  0  0  0  0  0  0  0  0  0  0  0
   -9.4780   16.5700    7.4720 C   0  0  0  0  0  0  0  0  0  0  0  0
  -10.0800   17.6870    6.9230 C   0  0  0  0  0  0  0  0  0  0  0  0
  1  2  1  0
  2  3  1  0
  1  4  2  0
  1  5  1  6
  1  6  1  0
  6  7  1  0
  7  8  2  0
  7  9  1  1
  7 10  1  0
 11  3  1  6
 10 12  1  0
 11 13  1  0
 11 14  1  0
 14 15  1  1
 14 16  1  0
 13 17  1  0
 16 17  1  0
 18 12  1  1
 16 19  1  1
 18 20  1  0
 18 21  1  0
 17 22  1  1
 20 23  1  6
 21 24  1  0
 20 25  1  0
 24 25  1  0
 22 26  1  0
 22 27  1  0
 24 28  1  6
 25 29  1  1
 26 30  2  0
 26 31  1  0
 27 32  2  0
 30 32  1  0
 30 33  1  0
 31 34  2  0
 33 35  1  0
 33 36  2  0
 34 36  1  0
 35 37  1  0
 37 38  1  0
 38 39  1  0
 38 40  1  0
 39 41  2  0
 39 42  1  0
 40 43  2  0
 40 44  1  0
 43 45  1  0
 44 46  2  0
 42 47  1  0
 45 48  2  0
 46 48  1  0
 47 49  2  0
 47 50  1  0
 49 51  1  0
 50 52  2  0
 51 53  2  0
 52 53  1  0
M  END
>  <%Rank>  (13) 
4.761905

>  <N_hits>  (13) 
2

>  <submitter_name>  (13) 
nan

>  <original SMILES>  (13) 
nan

>  <∆G_unbound>  (13) 
7.791097

>  <∆G_bound>  (13) 
-5.64854

>  <regarded>  (13) 
mArh-5l9k_A_0_A,mArh-x0128_0_A

>  <ref_pdb>  (13) 
nan

>  <smiles>  (13) 
O=C(Nc1cccnc1)N(CNc1ncnc2c1ncn2C1OC(CO[P@](=O)(O)O[P@](=O)(O)OCC2OC(O)C(O)C2O)C(O)C1O)c1ccccc1

>  <submitter_email>  (13) 
nan

>  <disregarded>  (13) 


>  <LE>  (13) 
-0.253578

>  <submitter_institution>  (13) 
nan

>  <ref_mols>  (13) 
mArh-5l9k_A_0_A,mArh-x0128_0_A

>  <N_constrained_atoms>  (13) 
52.0

>  <ref_url>  (13) 
nan

>  <method>  (13) 
nan

>  <comRMSD>  (13) 
0.491465

>  <N_unconstrained_atoms>  (13) 
1.0

>  <∆∆G>  (13) 
-13.439637

>  <runtime>  (13) 
55.376457

>  <generation_date>  (13) 
nan

$$$$
mArh-4iqy_A_0_A-mArh-5cms_M_12_M
     RDKit          3D

 44 48  0  0  0  0  0  0  0  0999 V2000
   -1.5820   17.9650   -5.9010 P   0  0  2  0  0  0  0  0  0  0  0  0
   -0.4920   16.7980   -5.9310 O   0  0  0  0  0  0  0  0  0  0  0  0
    0.6560   16.8740   -5.0940 C   0  0  0  0  0  0  0  0  0  0  0  0
   -2.2440   18.0530   -4.6030 O   0  0  0  0  0  0  0  0  0  0  0  0
   -2.6560   17.5310   -7.0000 O   0  0  0  0  0  0  0  0  0  0  0  0
   -0.9640   19.3420   -6.3960 O   0  0  0  0  0  0  0  0  0  0  0  0
   -0.3500   19.7870   -7.7950 P   0  0  1  0  0  0  0  0  0  0  0  0
    0.8010   20.7170   -7.7460 O   0  0  0  0  0  0  0  0  0  0  0  0
   -0.0320   18.4640   -8.6460 O   0  0  0  0  0  0  0  0  0  0  0  0
   -1.6060   20.3370   -8.6420 O   0  0  0  0  0  0  0  0  0  0  0  0
    0.8780   15.5860   -4.2570 C   0  0  1  0  0  0  0  0  0  0  0  0
   -1.9700   21.7310   -8.7310 C   0  0  2  0  0  0  0  0  0  0  0  0
    0.1030   15.6770   -3.0530 O   0  0  0  0  0  0  0  0  0  0  0  0
    0.4660   14.2550   -4.9210 C   0  0  1  0  0  0  0  0  0  0  0  0
    1.5460   13.3250   -4.8870 O   0  0  0  0  0  0  0  0  0  0  0  0
   -0.7200   13.7240   -4.1070 C   0  0  2  0  0  0  0  0  0  0  0  0
   -1.0920   14.9330   -3.2760 C   0  0  1  0  0  0  0  0  0  0  0  0
   -3.4610   21.9240   -8.3960 C   0  0  2  0  0  0  0  0  0  0  0  0
   -1.6480   22.2000  -10.1610 C   0  0  2  0  0  0  0  0  0  0  0  0
   -0.4560   12.5250   -3.4100 O   0  0  0  0  0  0  0  0  0  0  0  0
   -3.8950   23.3720   -8.1020 C   0  0  1  0  0  0  0  0  0  0  0  0
   -3.9220   21.1070   -7.3140 O   0  0  0  0  0  0  0  0  0  0  0  0
   -1.8910   14.9420   -2.0680 N   0  0  0  0  0  0  0  0  0  0  0  0
   -1.6380   23.7010  -10.4260 C   0  0  1  0  0  0  0  0  0  0  0  0
   -2.5220   21.6130  -11.1330 O   0  0  0  0  0  0  0  0  0  0  0  0
   -4.8710   23.9180   -9.0070 O   0  0  0  0  0  0  0  0  0  0  0  0
   -0.4510   24.1210  -11.0830 O   0  0  0  0  0  0  0  0  0  0  0  0
   -4.9600   21.8070   -6.6530 C   0  0  1  0  0  0  0  0  0  0  0  0
   -4.5460   23.2690   -6.7220 C   0  0  2  0  0  0  0  0  0  0  0  0
   -1.5290   14.8540   -0.7460 C   0  0  0  0  0  0  0  0  0  0  0  0
   -3.2510   15.0940   -2.1160 C   0  0  0  0  0  0  0  0  0  0  0  0
   -3.4070   22.5980  -11.6600 C   0  0  2  0  0  0  0  0  0  0  0  0
   -2.8660   23.9800  -11.2900 C   0  0  2  0  0  0  0  0  0  0  0  0
   -6.1810   21.5830   -7.3550 O   0  0  0  0  0  0  0  0  0  0  0  0
   -5.6480   24.1530   -6.5890 O   0  0  0  0  0  0  0  0  0  0  0  0
   -4.7130   22.4370  -11.1380 O   0  0  0  0  0  0  0  0  0  0  0  0
   -2.5100   24.7860  -12.4210 O   0  0  0  0  0  0  0  0  0  0  0  0
   -2.7320   15.0020   -0.0790 C   0  0  0  0  0  0  0  0  0  0  0  0
   -0.3180   14.6940   -0.1890 N   0  0  0  0  0  0  0  0  0  0  0  0
   -3.7930   15.1370   -0.9310 N   0  0  0  0  0  0  0  0  0  0  0  0
   -2.6930   15.0090    1.2910 C   0  0  0  0  0  0  0  0  0  0  0  0
   -0.4220   14.6910    1.1570 C   0  0  0  0  0  0  0  0  0  0  0  0
   -3.8310   15.2100    2.0170 N   0  0  0  0  0  0  0  0  0  0  0  0
   -1.5160   14.8320    1.9160 N   0  0  0  0  0  0  0  0  0  0  0  0
  1  2  1  0
  2  3  1  0
  1  4  2  0
  1  5  1  6
  1  6  1  0
  6  7  1  0
  7  8  2  0
  7  9  1  6
  7 10  1  0
 11  3  1  6
 12 10  1  6
 11 13  1  0
 11 14  1  0
 14 15  1  1
 14 16  1  0
 13 17  1  0
 16 17  1  0
 12 18  1  0
 12 19  1  0
 16 20  1  1
 18 21  1  0
 18 22  1  1
 17 23  1  1
 19 24  1  0
 19 25  1  6
 21 26  1  6
 24 27  1  6
 22 28  1  0
 21 29  1  0
 28 29  1  0
 23 30  1  0
 23 31  1  0
 25 32  1  0
 24 33  1  0
 32 33  1  0
 28 34  1  6
 29 35  1  6
 32 36  1  1
 33 37  1  6
 30 38  2  0
 30 39  1  0
 31 40  2  0
 38 40  1  0
 38 41  1  0
 39 42  2  0
 41 43  1  0
 41 44  2  0
 42 44  1  0
M  END
>  <%Rank>  (14) 
5.15873

>  <N_hits>  (14) 
2

>  <submitter_name>  (14) 
nan

>  <original SMILES>  (14) 
nan

>  <∆G_unbound>  (14) 
7.223931

>  <∆G_bound>  (14) 
-14.268951

>  <regarded>  (14) 
mArh-4iqy_A_0_A,mArh-5cms_M_12_M

>  <ref_pdb>  (14) 
nan

>  <smiles>  (14) 
Nc1ncnc2c1ncn2C1OC(CO[P@](=O)(O)O[P@@](=O)(O)OC(C2OC(O)C(O)C2O)C2OC(O)C(O)C2O)C(O)C1O

>  <submitter_email>  (14) 
nan

>  <disregarded>  (14) 


>  <LE>  (14) 
-0.488475

>  <submitter_institution>  (14) 
nan

>  <ref_mols>  (14) 
mArh-4iqy_A_0_A,mArh-5cms_M_12_M

>  <N_constrained_atoms>  (14) 
44.0

>  <ref_url>  (14) 
nan

>  <method>  (14) 
nan

>  <comRMSD>  (14) 
0.577612

>  <N_unconstrained_atoms>  (14) 
0.0

>  <∆∆G>  (14) 
-21.492883

>  <runtime>  (14) 
49.081437

>  <generation_date>  (14) 
nan

$$$$
mArh-x0104_0_A-mArh-5cb5_P_0_P
     RDKit          3D

 52 57  0  0  0  0  0  0  0  0999 V2000
   -6.9080   14.6630    2.6750 N   0  0  0  0  0  0  0  0  0  0  0  0
   -8.0570   15.0730    3.2930 C   0  0  0  0  0  0  0  0  0  0  0  0
   -8.0870   15.1100    4.6540 N   0  0  0  0  0  0  0  0  0  0  0  0
   -6.4870   14.7840    1.3430 C   0  0  0  0  0  0  0  0  0  0  0  0
   -8.9820   15.3760    2.5430 O   0  0  0  0  0  0  0  0  0  0  0  0
   -5.1930   15.1190    0.8880 C   0  0  0  0  0  0  0  0  0  0  0  0
   -7.4770   14.5520    0.3760 C   0  0  0  0  0  0  0  0  0  0  0  0
   -4.9170   15.2140   -0.4210 N   0  0  0  0  0  0  0  0  0  0  0  0
   -7.1660   14.6570   -0.9910 C   0  0  0  0  0  0  0  0  0  0  0  0
   -9.2320   15.0980    5.4140 C   0  0  0  0  0  0  0  0  0  0  0  0
   -4.1350   15.3630    1.7570 N   0  0  0  0  0  0  0  0  0  0  0  0
   -5.8780   14.9880   -1.3040 C   0  0  0  0  0  0  0  0  0  0  0  0
   -9.2930   15.2030    6.8050 C   0  0  0  0  0  0  0  0  0  0  0  0
  -10.7770   14.9480    4.7270 S   0  0  0  0  0  0  0  0  0  0  0  0
   -2.8590   15.0310    1.2920 C   0  0  0  0  0  0  0  0  0  0  0  0
   -5.5080   15.1010   -2.4610 O   0  0  0  0  0  0  0  0  0  0  0  0
  -11.5450   15.0180    6.2530 C   0  0  0  0  0  0  0  0  0  0  0  0
  -10.6380   15.1550    7.2820 C   0  0  0  0  0  0  0  0  0  0  0  0
   -1.7700   14.7740    2.0520 N   0  0  0  0  0  0  0  0  0  0  0  0
   -2.6900   14.9370   -0.0880 C   0  0  0  0  0  0  0  0  0  0  0  0
   -1.4470   14.5960   -0.5580 C   0  0  0  0  0  0  0  0  0  0  0  0
   -0.5980   14.4630    1.4590 C   0  0  0  0  0  0  0  0  0  0  0  0
   -3.5670   15.1250   -1.1320 N   0  0  0  0  0  0  0  0  0  0  0  0
   -0.3430   14.3490    0.1500 N   0  0  0  0  0  0  0  0  0  0  0  0
   -1.5720   14.5570   -1.9050 N   0  0  0  0  0  0  0  0  0  0  0  0
   -2.8690   14.8870   -2.2120 C   0  0  0  0  0  0  0  0  0  0  0  0
   -0.5390   14.2310   -2.8370 C   0  0  2  0  0  0  0  0  0  0  0  0
    0.0640   15.4630   -3.2300 O   0  0  0  0  0  0  0  0  0  0  0  0
   -0.9370   13.4810   -4.1250 C   0  0  2  0  0  0  0  0  0  0  0  0
   -0.6710   12.0790   -4.0440 O   0  0  0  0  0  0  0  0  0  0  0  0
   -0.3360   15.5570   -4.5850 C   0  0  2  0  0  0  0  0  0  0  0  0
   -0.0230   14.1800   -5.1210 C   0  0  1  0  0  0  0  0  0  0  0  0
    0.2520   16.7790   -5.1980 C   0  0  0  0  0  0  0  0  0  0  0  0
    1.3420   13.7980   -5.0240 O   0  0  0  0  0  0  0  0  0  0  0  0
   -0.7150   17.7300   -4.7990 O   0  0  0  0  0  0  0  0  0  0  0  0
   -1.5160   18.4410   -5.9530 P   0  0  1  0  0  0  0  0  0  0  0  0
   -2.4160   17.5720   -6.7720 O   0  0  0  0  0  0  0  0  0  0  0  0
   -2.2970   19.5420   -5.1030 O   0  0  0  0  0  0  0  0  0  0  0  0
   -0.3000   19.1780   -6.5780 O   0  0  0  0  0  0  0  0  0  0  0  0
   -0.3740   20.0300   -7.8520 P   0  0  1  0  0  0  0  0  0  0  0  0
    0.6360   21.1120   -7.9480 O   0  0  0  0  0  0  0  0  0  0  0  0
   -0.2200   18.8700   -8.9330 O   0  0  0  0  0  0  0  0  0  0  0  0
   -1.9220   20.5070   -7.8630 O   0  0  0  0  0  0  0  0  0  0  0  0
   -2.2200   21.4750   -8.8370 C   0  0  0  0  0  0  0  0  0  0  0  0
   -3.6780   21.9460   -8.9040 C   0  0  2  0  0  0  0  0  0  0  0  0
   -3.8530   23.3840   -8.4200 C   0  0  1  0  0  0  0  0  0  0  0  0
   -4.5460   21.1000   -8.1230 O   0  0  0  0  0  0  0  0  0  0  0  0
   -4.6540   24.1470   -9.3080 O   0  0  0  0  0  0  0  0  0  0  0  0
   -5.2510   21.9070   -7.1960 C   0  0  2  0  0  0  0  0  0  0  0  0
   -4.4930   23.2170   -7.0490 C   0  0  2  0  0  0  0  0  0  0  0  0
   -5.2910   21.2790   -5.9320 O   0  0  0  0  0  0  0  0  0  0  0  0
   -5.3810   24.2840   -6.7060 O   0  0  0  0  0  0  0  0  0  0  0  0
  1  2  1  0
  2  3  1  0
  1  4  1  0
  2  5  2  0
  4  6  1  0
  4  7  2  0
  6  8  2  0
  7  9  1  0
  3 10  1  0
  6 11  1  0
  8 12  1  0
  9 12  2  0
 10 13  2  0
 10 14  1  0
 11 15  1  0
 12 16  1  0
 14 17  1  0
 13 18  1  0
 17 18  2  0
 15 19  2  0
 15 20  1  0
 20 21  2  0
 19 22  1  0
 20 23  1  0
 21 24  1  0
 22 24  2  0
 21 25  1  0
 23 26  2  0
 25 26  1  0
 27 25  1  1
 27 28  1  0
 27 29  1  0
 29 30  1  1
 28 31  1  0
 29 32  1  0
 31 32  1  0
 31 33  1  6
 32 34  1  1
 33 35  1  0
 35 36  1  0
 36 37  2  0
 36 38  1  1
 36 39  1  0
 39 40  1  0
 40 41  2  0
 40 42  1  6
 40 43  1  0
 43 44  1  0
 45 44  1  1
 45 46  1  0
 45 47  1  0
 46 48  1  6
 47 49  1  0
 46 50  1  0
 49 50  1  0
 49 51  1  1
 50 52  1  6
M  END
>  <%Rank>  (15) 
5.555556

>  <N_hits>  (15) 
2

>  <submitter_name>  (15) 
nan

>  <original SMILES>  (15) 
nan

>  <∆G_unbound>  (15) 
4.808766

>  <∆G_bound>  (15) 
-13.336104

>  <regarded>  (15) 
mArh-x0104_0_A,mArh-5cb5_P_0_P

>  <ref_pdb>  (15) 
nan

>  <smiles>  (15) 
O=C(Nc1cccs1)Nc1ccc(O)nc1Nc1ncnc2c1ncn2C1OC(CO[P@@](=O)(O)O[P@@](=O)(O)OCC2OC(O)C(O)C2O)C(O)C1O

>  <submitter_email>  (15) 
nan

>  <disregarded>  (15) 


>  <LE>  (15) 
-0.34894

>  <submitter_institution>  (15) 
nan

>  <ref_mols>  (15) 
mArh-x0104_0_A,mArh-5cb5_P_0_P

>  <N_constrained_atoms>  (15) 
52.0

>  <ref_url>  (15) 
nan

>  <method>  (15) 
nan

>  <comRMSD>  (15) 
0.560538

>  <N_unconstrained_atoms>  (15) 
0.0

>  <∆∆G>  (15) 
-18.14487

>  <runtime>  (15) 
51.54044

>  <generation_date>  (15) 
nan

$$$$
mArh-x0766_1_B-mArh-5cms_H_7_H
     RDKit          3D

 52 57  0  0  0  0  0  0  0  0999 V2000
   -6.8970   26.6090  -13.4820 C   0  0  0  0  0  0  0  0  0  0  0  0
   -5.7620   26.0250  -13.9370 O   0  0  0  0  0  0  0  0  0  0  0  0
   -5.7870   24.5900  -13.9470 C   0  0  0  0  0  0  0  0  0  0  0  0
   -7.9040   26.7940  -14.1580 O   0  0  0  0  0  0  0  0  0  0  0  0
   -6.7780   27.0080  -12.0210 C   0  0  2  0  0  0  0  0  0  0  0  0
   -7.9420   26.6410  -11.1100 C   0  0  0  0  0  0  0  0  0  0  0  0
   -6.6480   28.5180  -11.8250 C   0  0  2  0  0  0  0  0  0  0  0  0
   -4.6950   24.0500  -13.0330 C   0  0  0  0  0  0  0  0  0  0  0  0
   -8.8880   27.8300  -11.2200 C   0  0  0  0  0  0  0  0  0  0  0  0
   -8.0900   29.0060  -11.7950 C   0  0  0  0  0  0  0  0  0  0  0  0
   -5.8330   29.1790  -12.9160 C   0  0  0  0  0  0  0  0  0  0  0  0
   -5.0300   24.0500  -11.5490 C   0  0  0  0  0  0  0  0  0  0  0  0
   -4.4510   29.1670  -12.9450 C   0  0  0  0  0  0  0  0  0  0  0  0
   -6.3450   29.8920  -14.0570 C   0  0  0  0  0  0  0  0  0  0  0  0
   -3.8750   24.4490  -10.8130 O   0  0  0  0  0  0  0  0  0  0  0  0
   -5.3520   30.3730  -14.8770 C   0  0  0  0  0  0  0  0  0  0  0  0
   -3.7980   29.9820  -14.2970 S   0  0  0  0  0  0  0  0  0  0  0  0
   -2.7300   23.6590  -11.1350 C   0  0  1  0  0  0  0  0  0  0  0  0
   -1.4030   24.2850  -10.6340 C   0  0  2  0  0  0  0  0  0  0  0  0
   -2.9170   22.4220  -10.4510 O   0  0  0  0  0  0  0  0  0  0  0  0
   -0.6200   24.8470  -11.6770 O   0  0  0  0  0  0  0  0  0  0  0  0
   -0.6690   23.1880   -9.9400 C   0  0  1  0  0  0  0  0  0  0  0  0
   -1.6540   22.0080   -9.9520 C   0  0  1  0  0  0  0  0  0  0  0  0
    0.6010   23.0130  -10.5520 O   0  0  0  0  0  0  0  0  0  0  0  0
   -1.7590   21.4680   -8.5480 C   0  0  0  0  0  0  0  0  0  0  0  0
   -0.4870   20.9160   -8.2750 O   0  0  0  0  0  0  0  0  0  0  0  0
   -0.3620   19.4440   -7.6750 P   0  0  2  0  0  0  0  0  0  0  0  0
    0.6890   19.2710   -6.6470 O   0  0  0  0  0  0  0  0  0  0  0  0
    0.0120   18.5560   -8.9320 O   0  0  0  0  0  0  0  0  0  0  0  0
   -1.8150   18.9340   -7.3200 O   0  0  0  0  0  0  0  0  0  0  0  0
   -1.8660   17.8690   -6.1780 P   0  0  2  0  0  0  0  0  0  0  0  0
   -0.3540   17.3210   -6.3350 O   0  0  0  0  0  0  0  0  0  0  0  0
   -2.9700   16.8660   -6.3100 O   0  0  0  0  0  0  0  0  0  0  0  0
   -1.8840   18.7640   -4.8530 O   0  0  0  0  0  0  0  0  0  0  0  0
    0.4960   16.8490   -5.2870 C   0  0  0  0  0  0  0  0  0  0  0  0
   -0.1990   15.6640   -4.6740 C   0  0  2  0  0  0  0  0  0  0  0  0
   -0.0390   15.5520   -3.2750 O   0  0  0  0  0  0  0  0  0  0  0  0
   -0.0040   14.2080   -5.1420 C   0  0  1  0  0  0  0  0  0  0  0  0
    1.3100   13.7010   -4.9230 O   0  0  0  0  0  0  0  0  0  0  0  0
   -1.0000   13.5660   -4.1600 C   0  0  2  0  0  0  0  0  0  0  0  0
   -1.2250   14.7900   -3.2630 C   0  0  1  0  0  0  0  0  0  0  0  0
   -0.4010   12.4510   -3.5180 O   0  0  0  0  0  0  0  0  0  0  0  0
   -1.9930   14.8570   -2.0590 N   0  0  0  0  0  0  0  0  0  0  0  0
   -1.5760   14.7970   -0.7520 C   0  0  0  0  0  0  0  0  0  0  0  0
   -3.3410   15.0400   -2.0720 C   0  0  0  0  0  0  0  0  0  0  0  0
   -2.7590   14.9820   -0.0550 C   0  0  0  0  0  0  0  0  0  0  0  0
   -0.3470   14.6270   -0.2300 N   0  0  0  0  0  0  0  0  0  0  0  0
   -3.8390   15.1200   -0.8790 N   0  0  0  0  0  0  0  0  0  0  0  0
   -2.6880   15.0130    1.3090 C   0  0  0  0  0  0  0  0  0  0  0  0
   -0.4200   14.6540    1.1220 C   0  0  0  0  0  0  0  0  0  0  0  0
   -3.8280   15.2430    2.0390 N   0  0  0  0  0  0  0  0  0  0  0  0
   -1.4980   14.8290    1.9090 N   0  0  0  0  0  0  0  0  0  0  0  0
  1  2  1  0
  2  3  1  0
  1  4  2  0
  5  1  1  6
  5  6  1  0
  5  7  1  0
  3  8  1  0
  6  9  1  0
  7 10  1  0
  9 10  1  0
  7 11  1  6
  8 12  1  0
 11 13  2  0
 11 14  1  0
 12 15  1  0
 14 16  2  0
 13 17  1  0
 16 17  1  0
 18 15  1  1
 18 19  1  0
 18 20  1  0
 19 21  1  6
 19 22  1  0
 20 23  1  0
 22 23  1  0
 22 24  1  6
 23 25  1  1
 25 26  1  0
 26 27  1  0
 27 28  2  0
 27 29  1  6
 27 30  1  0
 30 31  1  0
 31 32  1  0
 31 33  2  0
 31 34  1  1
 32 35  1  0
 36 35  1  6
 36 37  1  0
 36 38  1  0
 38 39  1  1
 38 40  1  0
 37 41  1  0
 40 41  1  0
 40 42  1  1
 41 43  1  1
 43 44  1  0
 43 45  1  0
 44 46  2  0
 44 47  1  0
 45 48  2  0
 46 48  1  0
 46 49  1  0
 47 50  2  0
 49 51  1  0
 49 52  2  0
 50 52  1  0
M  END
>  <%Rank>  (16) 
5.952381

>  <N_hits>  (16) 
2

>  <submitter_name>  (16) 
nan

>  <original SMILES>  (16) 
nan

>  <∆G_unbound>  (16) 
5.473188

>  <∆G_bound>  (16) 
-15.088442

>  <regarded>  (16) 
mArh-x0766_1_B,mArh-5cms_H_7_H

>  <ref_pdb>  (16) 
nan

>  <smiles>  (16) 
Nc1ncnc2c1ncn2C1OC(CO[P@@](=O)(O)O[P@@](=O)(O)OCC2OC(OCCCOC(=O)C3CCCC3c3ccsc3)C(O)C2O)C(O)C1O

>  <submitter_email>  (16) 
nan

>  <disregarded>  (16) 


>  <LE>  (16) 
-0.395416

>  <submitter_institution>  (16) 
nan

>  <ref_mols>  (16) 
mArh-x0766_1_B,mArh-5cms_H_7_H

>  <N_constrained_atoms>  (16) 
49.0

>  <ref_url>  (16) 
nan

>  <method>  (16) 
nan

>  <comRMSD>  (16) 
0.535763

>  <N_unconstrained_atoms>  (16) 
3.0

>  <∆∆G>  (16) 
-20.561629

>  <runtime>  (16) 
58.852504

>  <generation_date>  (16) 
nan

$$$$
mArh-4iqy_B_0_B-mArh-x0128_0_A
     RDKit          3D

 53 58  0  0  0  0  0  0  0  0999 V2000
   -1.6170   18.0730   -5.8610 P   0  0  2  0  0  0  0  0  0  0  0  0
   -1.0510   16.6760   -5.3740 O   0  0  0  0  0  0  0  0  0  0  0  0
    0.3430   16.6780   -5.1110 C   0  0  0  0  0  0  0  0  0  0  0  0
   -2.2330   18.9330   -4.8290 O   0  0  0  0  0  0  0  0  0  0  0  0
   -2.6510   17.6970   -7.0140 O   0  0  0  0  0  0  0  0  0  0  0  0
   -0.3510   18.7280   -6.5200 O   0  0  0  0  0  0  0  0  0  0  0  0
   -0.2380   19.6410   -7.7830 P   0  0  1  0  0  0  0  0  0  0  0  0
    0.7690   20.7330   -7.7460 O   0  0  0  0  0  0  0  0  0  0  0  0
    0.1100   18.5300   -8.8720 O   0  0  0  0  0  0  0  0  0  0  0  0
   -1.7050   20.0980   -8.1650 O   0  0  0  0  0  0  0  0  0  0  0  0
    0.7470   15.4850   -4.2700 C   0  0  1  0  0  0  0  0  0  0  0  0
   -1.9730   21.4290   -8.5700 C   0  0  0  0  0  0  0  0  0  0  0  0
    0.1700   15.6020   -2.9590 O   0  0  0  0  0  0  0  0  0  0  0  0
    0.3030   14.1470   -4.8550 C   0  0  1  0  0  0  0  0  0  0  0  0
    1.3020   13.1360   -4.7140 O   0  0  0  0  0  0  0  0  0  0  0  0
   -0.9310   13.8060   -4.0330 C   0  0  2  0  0  0  0  0  0  0  0  0
   -0.5210   14.3700   -2.6860 C   0  0  2  0  0  0  0  0  0  0  0  0
   -3.0500   22.0170   -7.7160 C   0  0  1  0  0  0  0  0  0  0  0  0
   -1.0830   12.3780   -3.9440 O   0  0  0  0  0  0  0  0  0  0  0  0
   -3.6320   23.4220   -7.8960 C   0  0  1  0  0  0  0  0  0  0  0  0
   -4.1970   21.2280   -7.8350 O   0  0  0  0  0  0  0  0  0  0  0  0
   -1.5800   14.6440   -1.7360 N   0  0  0  0  0  0  0  0  0  0  0  0
   -4.3900   23.6900   -9.0910 O   0  0  0  0  0  0  0  0  0  0  0  0
   -5.0870   21.8230   -6.9030 C   0  0  1  0  0  0  0  0  0  0  0  0
   -4.6190   23.2870   -6.7330 C   0  0  2  0  0  0  0  0  0  0  0  0
   -1.4420   14.6430   -0.3910 C   0  0  0  0  0  0  0  0  0  0  0  0
   -2.8790   14.9600   -2.0210 C   0  0  0  0  0  0  0  0  0  0  0  0
   -6.3860   21.7000   -7.4540 O   0  0  0  0  0  0  0  0  0  0  0  0
   -5.7390   24.1630   -6.8490 O   0  0  0  0  0  0  0  0  0  0  0  0
   -2.6910   14.9910    0.1190 C   0  0  0  0  0  0  0  0  0  0  0  0
   -0.3270   14.3710    0.2630 N   0  0  0  0  0  0  0  0  0  0  0  0
   -3.5760   15.1780   -0.9220 N   0  0  0  0  0  0  0  0  0  0  0  0
   -2.8190   15.0990    1.5290 C   0  0  0  0  0  0  0  0  0  0  0  0
   -0.5500   14.4630    1.5670 C   0  0  0  0  0  0  0  0  0  0  0  0
   -4.0160   15.5160    2.2060 N   0  0  0  0  0  0  0  0  0  0  0  0
   -1.6980   14.7970    2.1990 N   0  0  0  0  0  0  0  0  0  0  0  0
   -4.9430   14.7560    3.0660 C   0  0  0  0  0  0  0  0  0  0  0  0
   -6.2750   14.6290    2.4500 N   0  0  0  0  0  0  0  0  0  0  0  0
   -7.4800   15.0830    3.1090 C   0  0  0  0  0  0  0  0  0  0  0  0
   -6.1520   14.8060    1.0300 C   0  0  0  0  0  0  0  0  0  0  0  0
   -8.5400   15.2900    2.5170 O   0  0  0  0  0  0  0  0  0  0  0  0
   -7.4110   15.3110    4.4830 N   0  0  0  0  0  0  0  0  0  0  0  0
   -7.0700   14.3130    0.0980 C   0  0  0  0  0  0  0  0  0  0  0  0
   -5.0680   15.5130    0.5050 C   0  0  0  0  0  0  0  0  0  0  0  0
   -6.9030   14.5210   -1.2770 C   0  0  0  0  0  0  0  0  0  0  0  0
   -4.8970   15.7240   -0.8540 C   0  0  0  0  0  0  0  0  0  0  0  0
   -8.3020   16.0870    5.2690 C   0  0  0  0  0  0  0  0  0  0  0  0
   -5.8110   15.2280   -1.7470 C   0  0  0  0  0  0  0  0  0  0  0  0
   -9.0120   17.2090    4.8330 C   0  0  0  0  0  0  0  0  0  0  0  0
   -8.4990   15.7060    6.6010 C   0  0  0  0  0  0  0  0  0  0  0  0
   -9.8590   17.9320    5.6120 N   0  0  0  0  0  0  0  0  0  0  0  0
   -9.3650   16.4360    7.4220 C   0  0  0  0  0  0  0  0  0  0  0  0
  -10.0150   17.5330    6.8840 C   0  0  0  0  0  0  0  0  0  0  0  0
  1  2  1  0
  2  3  1  0
  1  4  2  0
  1  5  1  6
  1  6  1  0
  6  7  1  0
  7  8  2  0
  7  9  1  6
  7 10  1  0
 11  3  1  6
 10 12  1  0
 11 13  1  0
 11 14  1  0
 14 15  1  1
 14 16  1  0
 13 17  1  0
 16 17  1  0
 18 12  1  6
 16 19  1  1
 18 20  1  0
 18 21  1  0
 17 22  1  1
 20 23  1  6
 21 24  1  0
 20 25  1  0
 24 25  1  0
 22 26  1  0
 22 27  1  0
 24 28  1  6
 25 29  1  6
 26 30  2  0
 26 31  1  0
 27 32  2  0
 30 32  1  0
 30 33  1  0
 31 34  2  0
 33 35  1  0
 33 36  2  0
 34 36  1  0
 35 37  1  0
 37 38  1  0
 38 39  1  0
 38 40  1  0
 39 41  2  0
 39 42  1  0
 40 43  2  0
 40 44  1  0
 43 45  1  0
 44 46  2  0
 42 47  1  0
 45 48  2  0
 46 48  1  0
 47 49  2  0
 47 50  1  0
 49 51  1  0
 50 52  2  0
 51 53  2  0
 52 53  1  0
M  END
>  <%Rank>  (17) 
6.349206

>  <N_hits>  (17) 
2

>  <submitter_name>  (17) 
nan

>  <original SMILES>  (17) 
nan

>  <∆G_unbound>  (17) 
7.805335

>  <∆G_bound>  (17) 
-14.857591

>  <regarded>  (17) 
mArh-4iqy_B_0_B,mArh-x0128_0_A

>  <ref_pdb>  (17) 
nan

>  <smiles>  (17) 
O=C(Nc1cccnc1)N(CNc1ncnc2c1ncn2C1OC(CO[P@](=O)(O)O[P@@](=O)(O)OCC2OC(O)C(O)C2O)C(O)C1O)c1ccccc1

>  <submitter_email>  (17) 
nan

>  <disregarded>  (17) 


>  <LE>  (17) 
-0.427602

>  <submitter_institution>  (17) 
nan

>  <ref_mols>  (17) 
mArh-4iqy_B_0_B,mArh-x0128_0_A

>  <N_constrained_atoms>  (17) 
52.0

>  <ref_url>  (17) 
nan

>  <method>  (17) 
nan

>  <comRMSD>  (17) 
0.591793

>  <N_unconstrained_atoms>  (17) 
1.0

>  <∆∆G>  (17) 
-22.662926

>  <runtime>  (17) 
60.267766

>  <generation_date>  (17) 
nan

$$$$
mArh-5cb5_R_0_R-mArh-6mea_A_0_A
     RDKit          3D

 36 39  0  0  0  0  0  0  0  0999 V2000
   -1.3780   18.2130   -6.1670 P   0  0  1  0  0  0  0  0  0  0  0  0
    0.1280   17.4080   -6.4800 O   0  0  0  0  0  0  0  0  0  0  0  0
    0.7340   16.8890   -5.3360 C   0  0  0  0  0  0  0  0  0  0  0  0
   -2.4970   17.3940   -6.8240 O   0  0  0  0  0  0  0  0  0  0  0  0
   -1.4970   18.3750   -4.5800 O   0  0  0  0  0  0  0  0  0  0  0  0
   -1.1480   19.6700   -6.6410 O   0  0  0  0  0  0  0  0  0  0  0  0
   -0.3030   20.0690   -7.9000 P   0  0  1  0  0  0  0  0  0  0  0  0
    0.9820   20.7780   -7.6770 O   0  0  0  0  0  0  0  0  0  0  0  0
   -0.0840   18.7010   -8.7300 O   0  0  0  0  0  0  0  0  0  0  0  0
   -1.3880   20.7630   -8.8090 O   0  0  0  0  0  0  0  0  0  0  0  0
   -0.1110   15.7560   -4.8080 C   0  0  2  0  0  0  0  0  0  0  0  0
   -2.1050   21.7610   -8.1250 C   0  0  0  0  0  0  0  0  0  0  0  0
   -0.2630   15.7360   -3.3940 O   0  0  0  0  0  0  0  0  0  0  0  0
    0.2360   14.2880   -5.1220 C   0  0  1  0  0  0  0  0  0  0  0  0
    1.5460   13.8480   -4.7990 O   0  0  0  0  0  0  0  0  0  0  0  0
   -0.8500   13.6490   -4.2340 C   0  0  2  0  0  0  0  0  0  0  0  0
   -1.3600   14.8270   -3.4190 C   0  0  1  0  0  0  0  0  0  0  0  0
   -3.4270   22.1040   -8.7950 C   0  0  2  0  0  0  0  0  0  0  0  0
   -0.3680   12.5080   -3.5620 O   0  0  0  0  0  0  0  0  0  0  0  0
   -3.8830   23.5060   -8.4360 C   0  0  1  0  0  0  0  0  0  0  0  0
   -4.4520   21.2430   -8.2920 O   0  0  0  0  0  0  0  0  0  0  0  0
   -2.0590   14.8600   -2.1760 N   0  0  0  0  0  0  0  0  0  0  0  0
   -4.8210   23.9940   -9.4060 O   0  0  0  0  0  0  0  0  0  0  0  0
   -5.2300   21.9280   -7.2950 C   0  0  2  0  0  0  0  0  0  0  0  0
   -4.5450   23.2300   -7.0850 C   0  0  2  0  0  0  0  0  0  0  0  0
   -1.6110   14.8270   -0.8820 C   0  0  0  0  0  0  0  0  0  0  0  0
   -3.4370   14.9850   -2.1820 C   0  0  0  0  0  0  0  0  0  0  0  0
   -5.1980   21.2030   -6.0740 O   0  0  0  0  0  0  0  0  0  0  0  0
   -5.4600   24.2490   -6.6890 O   0  0  0  0  0  0  0  0  0  0  0  0
   -2.9210   14.9850   -0.1560 C   0  0  0  0  0  0  0  0  0  0  0  0
   -0.3620   14.7140   -0.3690 N   0  0  0  0  0  0  0  0  0  0  0  0
   -3.9850   15.0630   -0.9950 N   0  0  0  0  0  0  0  0  0  0  0  0
   -2.7280   15.0260    1.1910 C   0  0  0  0  0  0  0  0  0  0  0  0
   -0.4220   14.7590    0.9710 C   0  0  0  0  0  0  0  0  0  0  0  0
   -3.8120   15.2150    1.9990 N   0  0  0  0  0  0  0  0  0  0  0  0
   -1.5040   14.9000    1.7500 N   0  0  0  0  0  0  0  0  0  0  0  0
  1  2  1  0
  2  3  1  0
  1  4  2  0
  1  5  1  1
  1  6  1  0
  6  7  1  0
  7  8  2  0
  7  9  1  6
  7 10  1  0
 11  3  1  1
 10 12  1  0
 11 13  1  0
 11 14  1  0
 14 15  1  1
 14 16  1  0
 13 17  1  0
 16 17  1  0
 18 12  1  1
 16 19  1  1
 18 20  1  0
 18 21  1  0
 17 22  1  1
 20 23  1  6
 21 24  1  0
 20 25  1  0
 24 25  1  0
 22 26  1  0
 22 27  1  0
 24 28  1  1
 25 29  1  6
 26 30  2  0
 26 31  1  0
 27 32  2  0
 30 32  1  0
 30 33  1  0
 31 34  2  0
 33 35  1  0
 33 36  2  0
 34 36  1  0
M  END
>  <%Rank>  (18) 
6.746032

>  <N_hits>  (18) 
2

>  <submitter_name>  (18) 
nan

>  <original SMILES>  (18) 
nan

>  <∆G_unbound>  (18) 
7.594996

>  <∆G_bound>  (18) 
-17.78921

>  <regarded>  (18) 
mArh-5cb5_R_0_R,mArh-6mea_A_0_A

>  <ref_pdb>  (18) 
nan

>  <smiles>  (18) 
Nc1ncnc2c1ncn2C1OC(CO[P@@](=O)(O)O[P@@](=O)(O)OCC2OC(O)C(O)C2O)C(O)C1O

>  <submitter_email>  (18) 
nan

>  <disregarded>  (18) 


>  <LE>  (18) 
-0.705117

>  <submitter_institution>  (18) 
nan

>  <ref_mols>  (18) 
mArh-5cb5_R_0_R,mArh-6mea_A_0_A

>  <N_constrained_atoms>  (18) 
36.0

>  <ref_url>  (18) 
nan

>  <method>  (18) 
nan

>  <comRMSD>  (18) 
0.625612

>  <N_unconstrained_atoms>  (18) 
0.0

>  <∆∆G>  (18) 
-25.384207

>  <runtime>  (18) 
39.282374

>  <generation_date>  (18) 
nan

$$$$
mArh-5cb5_F_1_F-mArh-x0417_0_B
     RDKit          3D

 58 63  0  0  0  0  0  0  0  0999 V2000
   -1.5810   18.2480   -5.9200 P   0  0  1  0  0  0  0  0  0  0  0  0
   -0.9390   17.0540   -5.0850 O   0  0  0  0  0  0  0  0  0  0  0  0
    0.4850   16.9460   -5.0480 C   0  0  0  0  0  0  0  0  0  0  0  0
   -2.6260   17.8350   -6.9030 O   0  0  0  0  0  0  0  0  0  0  0  0
   -2.1960   19.2400   -4.8260 O   0  0  0  0  0  0  0  0  0  0  0  0
   -0.3820   19.1230   -6.4450 O   0  0  0  0  0  0  0  0  0  0  0  0
   -0.2710   19.6540   -7.9180 P   0  0  2  0  0  0  0  0  0  0  0  0
   -1.6850   20.2640   -8.2800 O   0  0  0  0  0  0  0  0  0  0  0  0
    0.2000   18.6260   -8.8670 O   0  0  0  0  0  0  0  0  0  0  0  0
    0.7080   20.9150   -7.7910 O   0  0  0  0  0  0  0  0  0  0  0  0
    0.9080   15.5960   -4.4360 C   0  0  1  0  0  0  0  0  0  0  0  0
   -1.9400   21.6430   -8.3700 C   0  0  0  0  0  0  0  0  0  0  0  0
    0.3670   15.4580   -3.1060 O   0  0  0  0  0  0  0  0  0  0  0  0
    0.3910   14.3440   -5.1740 C   0  0  1  0  0  0  0  0  0  0  0  0
    1.3340   13.2780   -5.1730 O   0  0  0  0  0  0  0  0  0  0  0  0
   -0.8730   13.9230   -4.4080 C   0  0  2  0  0  0  0  0  0  0  0  0
   -0.9780   15.0160   -3.3340 C   0  0  1  0  0  0  0  0  0  0  0  0
   -3.1720   21.8280   -9.2420 C   0  0  1  0  0  0  0  0  0  0  0  0
   -0.6880   12.5970   -3.9150 O   0  0  0  0  0  0  0  0  0  0  0  0
   -4.2720   21.1150   -8.6700 O   0  0  0  0  0  0  0  0  0  0  0  0
   -3.6800   23.2490   -9.4010 C   0  0  1  0  0  0  0  0  0  0  0  0
   -1.7130   14.8560   -2.0910 N   0  0  0  0  0  0  0  0  0  0  0  0
   -4.6880   23.3310  -10.4400 O   0  0  0  0  0  0  0  0  0  0  0  0
   -1.1970   14.7720   -0.8120 C   0  0  0  0  0  0  0  0  0  0  0  0
   -4.2530   23.3260   -8.0330 C   0  0  2  0  0  0  0  0  0  0  0  0
   -5.0990   22.0610   -8.0200 C   0  0  2  0  0  0  0  0  0  0  0  0
   -3.0740   14.7880   -1.9840 C   0  0  0  0  0  0  0  0  0  0  0  0
   -5.0750   24.4390   -7.8100 O   0  0  0  0  0  0  0  0  0  0  0  0
   -5.4370   21.6020   -6.7210 O   0  0  0  0  0  0  0  0  0  0  0  0
   -4.7920   24.6370  -11.0200 C   0  0  0  0  0  0  0  0  0  0  0  0
   -2.3180   14.6710   -0.0030 C   0  0  0  0  0  0  0  0  0  0  0  0
    0.0850   14.7910   -0.4000 N   0  0  0  0  0  0  0  0  0  0  0  0
   -3.4740   14.6770   -0.7410 N   0  0  0  0  0  0  0  0  0  0  0  0
   -5.1860   24.4600   -6.5020 C   0  0  0  0  0  0  0  0  0  0  0  0
   -5.1850   24.7270  -12.4830 C   0  0  0  0  0  0  0  0  0  0  0  0
   -2.1090   14.5880    1.3690 C   0  0  0  0  0  0  0  0  0  0  0  0
    0.1670   14.7040    0.9430 C   0  0  0  0  0  0  0  0  0  0  0  0
   -4.4860   25.5180   -5.9150 C   0  0  0  0  0  0  0  0  0  0  0  0
   -5.7690   23.6030   -5.9260 O   0  0  0  0  0  0  0  0  0  0  0  0
   -3.1500   14.4950    2.2850 N   0  0  0  0  0  0  0  0  0  0  0  0
   -5.1010   26.1760  -12.9950 C   0  0  0  0  0  0  0  0  0  0  0  0
   -0.8450   14.6050    1.8320 N   0  0  0  0  0  0  0  0  0  0  0  0
   -3.7520   26.8820  -12.7420 C   0  0  0  0  0  0  0  0  0  0  0  0
   -3.9860   28.1960  -12.1610 O   0  0  0  0  0  0  0  0  0  0  0  0
   -5.1860   28.7940  -12.3930 C   0  0  0  0  0  0  0  0  0  0  0  0
   -6.2840   28.7110  -11.5240 C   0  0  0  0  0  0  0  0  0  0  0  0
   -5.2840   29.5150  -13.5900 C   0  0  0  0  0  0  0  0  0  0  0  0
   -4.2010   29.6510  -14.5060 N   0  0  0  0  0  0  0  0  0  0  0  0
   -6.5120   30.1280  -13.8880 C   0  0  0  0  0  0  0  0  0  0  0  0
   -7.4860   29.3290  -11.8370 C   0  0  0  0  0  0  0  0  0  0  0  0
   -3.1310   28.6950  -14.6410 C   0  0  0  0  0  0  0  0  0  0  0  0
   -3.9560   30.7860  -15.2880 C   0  0  0  0  0  0  0  0  0  0  0  0
   -7.6010   30.0330  -13.0210 C   0  0  0  0  0  0  0  0  0  0  0  0
   -4.6740   31.7360  -15.5230 O   0  0  0  0  0  0  0  0  0  0  0  0
   -2.5570   30.6480  -15.8900 C   0  0  1  0  0  0  0  0  0  0  0  0
   -2.3430   29.1410  -15.8610 C   0  0  0  0  0  0  0  0  0  0  0  0
   -2.5570   31.2200  -17.2470 N   0  0  0  0  0  0  0  0  0  0  0  0
   -1.3210   31.9100  -17.5720 C   0  0  0  0  0  0  0  0  0  0  0  0
  1  2  1  0
  2  3  1  0
  1  4  2  0
  1  5  1  1
  1  6  1  0
  6  7  1  0
  7  8  1  0
  7  9  2  0
  7 10  1  1
 11  3  1  6
  8 12  1  0
 11 13  1  0
 11 14  1  0
 14 15  1  1
 14 16  1  0
 13 17  1  0
 16 17  1  0
 18 12  1  1
 16 19  1  1
 18 20  1  0
 18 21  1  0
 17 22  1  1
 21 23  1  6
 22 24  1  0
 21 25  1  0
 20 26  1  0
 25 26  1  0
 22 27  1  0
 25 28  1  6
 26 29  1  1
 23 30  1  0
 24 31  2  0
 24 32  1  0
 27 33  2  0
 31 33  1  0
 28 34  1  0
 30 35  1  0
 31 36  1  0
 32 37  2  0
 34 38  1  0
 34 39  2  0
 36 40  1  0
 35 41  1  0
 36 42  2  0
 37 42  1  0
 41 43  1  0
 43 44  1  0
 44 45  1  0
 45 46  2  0
 45 47  1  0
 47 48  1  0
 47 49  2  0
 46 50  1  0
 48 51  1  0
 48 52  1  0
 49 53  1  0
 50 53  2  0
 52 54  2  0
 52 55  1  0
 51 56  1  0
 55 56  1  0
 55 57  1  6
 57 58  1  0
M  END
>  <%Rank>  (19) 
7.142857

>  <N_hits>  (19) 
2

>  <submitter_name>  (19) 
nan

>  <original SMILES>  (19) 
nan

>  <∆G_unbound>  (19) 
3.537953

>  <∆G_bound>  (19) 
-18.441239

>  <regarded>  (19) 
mArh-5cb5_F_1_F,mArh-x0417_0_B

>  <ref_pdb>  (19) 
nan

>  <smiles>  (19) 
CNC1CCN(c2ccccc2OCCCCOC2C(CO[P@@](=O)(O)O[P@](=O)(O)OCC3OC(n4cnc5c(N)ncnc54)C(O)C3O)OC(O)C2OC(C)=O)C1=O

>  <submitter_email>  (19) 
nan

>  <disregarded>  (19) 


>  <LE>  (19) 
-0.378952

>  <submitter_institution>  (19) 
nan

>  <ref_mols>  (19) 
mArh-5cb5_F_1_F,mArh-x0417_0_B

>  <N_constrained_atoms>  (19) 
54.0

>  <ref_url>  (19) 
nan

>  <method>  (19) 
nan

>  <comRMSD>  (19) 
0.577539

>  <N_unconstrained_atoms>  (19) 
4.0

>  <∆∆G>  (19) 
-21.979192

>  <runtime>  (19) 
51.427437

>  <generation_date>  (19) 
nan

$$$$
mArh-x0766_1_B-mArh-5dus_0_A
     RDKit          3D

 51 56  0  0  0  0  0  0  0  0999 V2000
   -6.6220   26.5200  -13.3640 C   0  0  0  0  0  0  0  0  0  0  0  0
   -5.5700   26.1370  -14.1050 O   0  0  0  0  0  0  0  0  0  0  0  0
   -7.7410   26.4870  -13.8530 O   0  0  0  0  0  0  0  0  0  0  0  0
   -6.2170   26.9660  -11.9600 C   0  0  2  0  0  0  0  0  0  0  0  0
   -7.0630   26.4460  -10.8040 C   0  0  2  0  0  0  0  0  0  0  0  0
   -6.5530   28.4530  -11.8240 C   0  0  2  0  0  0  0  0  0  0  0  0
   -6.9780   24.9280  -10.4290 C   0  0  0  0  0  0  0  0  0  0  0  0
   -8.4370   27.0340  -11.2040 C   0  0  0  0  0  0  0  0  0  0  0  0
   -8.0920   28.4380  -11.7470 C   0  0  0  0  0  0  0  0  0  0  0  0
   -5.8670   29.2240  -12.9180 C   0  0  0  0  0  0  0  0  0  0  0  0
   -5.5420   24.3370  -10.2610 C   0  0  0  0  0  0  0  0  0  0  0  0
   -4.4870   29.2840  -13.0040 C   0  0  0  0  0  0  0  0  0  0  0  0
   -6.4730   29.9690  -13.9870 C   0  0  0  0  0  0  0  0  0  0  0  0
   -5.4310   23.4980   -9.0740 O   0  0  0  0  0  0  0  0  0  0  0  0
   -5.5410   30.5480  -14.8200 C   0  0  0  0  0  0  0  0  0  0  0  0
   -3.9390   30.2070  -14.3310 S   0  0  0  0  0  0  0  0  0  0  0  0
   -4.1750   23.4490   -8.2940 C   0  0  1  0  0  0  0  0  0  0  0  0
   -4.5760   23.3670   -6.8300 C   0  0  1  0  0  0  0  0  0  0  0  0
   -3.5350   22.0360   -8.4140 C   0  0  1  0  0  0  0  0  0  0  0  0
   -5.3830   24.3980   -6.2960 O   0  0  0  0  0  0  0  0  0  0  0  0
   -2.1160   21.7940   -7.8470 C   0  0  0  0  0  0  0  0  0  0  0  0
   -5.3140   22.0550   -6.9310 C   0  0  1  0  0  0  0  0  0  0  0  0
   -4.3860   21.2210   -7.5890 O   0  0  0  0  0  0  0  0  0  0  0  0
   -5.6360   21.5590   -5.6460 O   0  0  0  0  0  0  0  0  0  0  0  0
   -1.7340   20.4210   -8.0940 O   0  0  0  0  0  0  0  0  0  0  0  0
   -0.2860   19.8610   -7.6560 P   0  0  2  0  0  0  0  0  0  0  0  0
    0.8180   20.8530   -7.6830 O   0  0  0  0  0  0  0  0  0  0  0  0
   -0.0110   18.6750   -8.7100 O   0  0  0  0  0  0  0  0  0  0  0  0
   -0.4140   19.0170   -6.3320 O   0  0  0  0  0  0  0  0  0  0  0  0
   -1.5840   18.1150   -5.8090 P   0  0  2  0  0  0  0  0  0  0  0  0
   -0.9740   16.8380   -5.0450 O   0  0  0  0  0  0  0  0  0  0  0  0
   -2.6540   17.7630   -6.7850 O   0  0  0  0  0  0  0  0  0  0  0  0
   -2.1590   19.0380   -4.6360 O   0  0  0  0  0  0  0  0  0  0  0  0
    0.4430   16.7440   -4.8630 C   0  0  0  0  0  0  0  0  0  0  0  0
    0.8410   15.3630   -4.2850 C   0  0  1  0  0  0  0  0  0  0  0  0
    0.3970   15.2100   -2.9180 O   0  0  0  0  0  0  0  0  0  0  0  0
    0.1460   14.2020   -5.0280 C   0  0  1  0  0  0  0  0  0  0  0  0
    0.9500   13.0320   -5.1020 O   0  0  0  0  0  0  0  0  0  0  0  0
   -1.1530   13.9140   -4.2380 C   0  0  2  0  0  0  0  0  0  0  0  0
   -1.0050   14.9020   -3.0860 C   0  0  1  0  0  0  0  0  0  0  0  0
   -1.1930   12.5390   -3.8780 O   0  0  0  0  0  0  0  0  0  0  0  0
   -1.7560   14.9070   -1.8430 N   0  0  0  0  0  0  0  0  0  0  0  0
   -1.2450   14.8360   -0.5520 C   0  0  0  0  0  0  0  0  0  0  0  0
   -3.1140   15.0210   -1.7290 C   0  0  0  0  0  0  0  0  0  0  0  0
   -2.3620   14.9440    0.2660 C   0  0  0  0  0  0  0  0  0  0  0  0
    0.0340   14.7100   -0.1420 N   0  0  0  0  0  0  0  0  0  0  0  0
   -3.5120   15.0440   -0.4770 N   0  0  0  0  0  0  0  0  0  0  0  0
   -2.1490   14.9450    1.6530 C   0  0  0  0  0  0  0  0  0  0  0  0
    0.1120   14.7120    1.2140 C   0  0  0  0  0  0  0  0  0  0  0  0
   -3.1830   15.0720    2.5710 N   0  0  0  0  0  0  0  0  0  0  0  0
   -0.8880   14.8250    2.1160 N   0  0  0  0  0  0  0  0  0  0  0  0
  1  2  1  0
  1  3  2  0
  4  1  1  6
  4  5  1  0
  4  6  1  0
  5  7  1  6
  5  8  1  0
  6  9  1  0
  8  9  1  0
  6 10  1  6
  7 11  1  0
 10 12  2  0
 10 13  1  0
 11 14  1  0
 13 15  2  0
 12 16  1  0
 15 16  1  0
 17 14  1  6
 17 18  1  0
 17 19  1  0
 18 20  1  6
 19 21  1  1
 18 22  1  0
 19 23  1  0
 22 23  1  0
 22 24  1  1
 21 25  1  0
 25 26  1  0
 26 27  2  0
 26 28  1  6
 26 29  1  0
 29 30  1  0
 30 31  1  0
 30 32  2  0
 30 33  1  1
 31 34  1  0
 35 34  1  6
 35 36  1  0
 35 37  1  0
 37 38  1  1
 37 39  1  0
 36 40  1  0
 39 40  1  0
 39 41  1  1
 40 42  1  1
 42 43  1  0
 42 44  1  0
 43 45  2  0
 43 46  1  0
 44 47  2  0
 45 47  1  0
 45 48  1  0
 46 49  2  0
 48 50  1  0
 48 51  2  0
 49 51  1  0
M  END
>  <%Rank>  (20) 
7.539683

>  <N_hits>  (20) 
2

>  <submitter_name>  (20) 
nan

>  <original SMILES>  (20) 
nan

>  <∆G_unbound>  (20) 
8.932503

>  <∆G_bound>  (20) 
-17.023707

>  <regarded>  (20) 
mArh-x0766_1_B,mArh-5dus_0_A

>  <ref_pdb>  (20) 
nan

>  <smiles>  (20) 
Nc1ncnc2c1ncn2C1OC(CO[P@@](=O)(O)O[P@@](=O)(O)OCC2OC(O)C(O)C2OCCC2CCC(c3ccsc3)C2C(=O)O)C(O)C1O

>  <submitter_email>  (20) 
nan

>  <disregarded>  (20) 


>  <LE>  (20) 
-0.508945

>  <submitter_institution>  (20) 
nan

>  <ref_mols>  (20) 
mArh-x0766_1_B,mArh-5dus_0_A

>  <N_constrained_atoms>  (20) 
49.0

>  <ref_url>  (20) 
nan

>  <method>  (20) 
nan

>  <comRMSD>  (20) 
0.630359

>  <N_unconstrained_atoms>  (20) 
2.0

>  <∆∆G>  (20) 
-25.95621

>  <runtime>  (20) 
39.293741

>  <generation_date>  (20) 
nan

$$$$
mArh-x0962_3_A-mArh-5cb5_J_2_J
     RDKit          3D

 45 49  0  0  0  0  0  0  0  0999 V2000
    0.9770   11.3330   -8.9190 N   0  0  0  0  0  0  0  0  0  0  0  0
    0.9670   10.9550   -7.5230 C   0  0  1  0  0  0  0  0  0  0  0  0
    0.4970   12.0660   -6.5540 C   0  0  0  0  0  0  0  0  0  0  0  0
    0.0270    9.8340   -7.4880 C   0  0  0  0  0  0  0  0  0  0  0  0
    1.5690   12.6040   -5.6020 C   0  0  0  0  0  0  0  0  0  0  0  0
    0.2600    8.6260   -8.0990 N   0  0  0  0  0  0  0  0  0  0  0  0
   -1.2040    9.7080   -6.9010 C   0  0  0  0  0  0  0  0  0  0  0  0
    1.2990   13.9540   -5.1670 O   0  0  0  0  0  0  0  0  0  0  0  0
   -0.8240    7.8420   -7.8560 C   0  0  0  0  0  0  0  0  0  0  0  0
   -1.7270    8.4700   -7.1340 N   0  0  0  0  0  0  0  0  0  0  0  0
   -0.0760   14.3530   -5.1500 C   0  0  2  0  0  0  0  0  0  0  0  0
   -0.3030   15.7790   -4.6290 C   0  0  2  0  0  0  0  0  0  0  0  0
   -0.9330   13.6120   -4.1270 C   0  0  1  0  0  0  0  0  0  0  0  0
    0.5690   16.8620   -5.2430 C   0  0  0  0  0  0  0  0  0  0  0  0
   -0.4840   12.2600   -4.0030 O   0  0  0  0  0  0  0  0  0  0  0  0
   -0.0610   15.6730   -3.2370 O   0  0  0  0  0  0  0  0  0  0  0  0
   -0.6440   14.4180   -2.8570 C   0  0  1  0  0  0  0  0  0  0  0  0
   -0.0840   17.4510   -6.3450 O   0  0  0  0  0  0  0  0  0  0  0  0
   -1.7560   14.6800   -1.9910 N   0  0  0  0  0  0  0  0  0  0  0  0
   -1.4560   18.2580   -6.1470 P   0  0  1  0  0  0  0  0  0  0  0  0
   -1.5840   14.7300   -0.6640 C   0  0  0  0  0  0  0  0  0  0  0  0
   -3.0770   14.9220   -2.2670 C   0  0  0  0  0  0  0  0  0  0  0  0
   -2.6350   17.6500   -6.8070 O   0  0  0  0  0  0  0  0  0  0  0  0
   -1.6050   18.4900   -4.5840 O   0  0  0  0  0  0  0  0  0  0  0  0
   -1.0120   19.6580   -6.6520 O   0  0  0  0  0  0  0  0  0  0  0  0
   -2.8330   15.0180   -0.1450 C   0  0  0  0  0  0  0  0  0  0  0  0
   -0.4260   14.5430   -0.0260 N   0  0  0  0  0  0  0  0  0  0  0  0
   -3.7690   15.1350   -1.1570 N   0  0  0  0  0  0  0  0  0  0  0  0
   -0.2650   19.9890   -7.9760 P   0  0  1  0  0  0  0  0  0  0  0  0
   -2.8930   15.1350    1.2410 C   0  0  0  0  0  0  0  0  0  0  0  0
   -0.6070   14.6620    1.2880 C   0  0  0  0  0  0  0  0  0  0  0  0
    0.9520   20.8240   -7.8030 O   0  0  0  0  0  0  0  0  0  0  0  0
    0.0010   18.6440   -8.7970 O   0  0  0  0  0  0  0  0  0  0  0  0
   -1.4270   20.6560   -8.8000 O   0  0  0  0  0  0  0  0  0  0  0  0
   -4.0600   15.4480    1.9220 N   0  0  0  0  0  0  0  0  0  0  0  0
   -1.7520   14.9390    1.9450 N   0  0  0  0  0  0  0  0  0  0  0  0
   -2.0550   21.7400   -8.1820 C   0  0  0  0  0  0  0  0  0  0  0  0
   -3.4200   22.0100   -8.8030 C   0  0  2  0  0  0  0  0  0  0  0  0
   -3.9640   23.4060   -8.5330 C   0  0  1  0  0  0  0  0  0  0  0  0
   -4.3700   21.0770   -8.2570 O   0  0  0  0  0  0  0  0  0  0  0  0
   -4.7310   24.0000   -9.5690 O   0  0  0  0  0  0  0  0  0  0  0  0
   -5.3100   21.7840   -7.4560 C   0  0  2  0  0  0  0  0  0  0  0  0
   -4.7890   23.2060   -7.2660 C   0  0  2  0  0  0  0  0  0  0  0  0
   -5.3490   21.1710   -6.1760 O   0  0  0  0  0  0  0  0  0  0  0  0
   -5.8540   24.1640   -7.1310 O   0  0  0  0  0  0  0  0  0  0  0  0
  2  1  1  6
  2  3  1  0
  2  4  1  0
  3  5  1  0
  4  6  1  0
  4  7  2  0
  5  8  1  0
  6  9  1  0
  7 10  1  0
  9 10  2  0
 11  8  1  1
 11 12  1  0
 11 13  1  0
 12 14  1  6
 13 15  1  1
 12 16  1  0
 13 17  1  0
 16 17  1  0
 14 18  1  0
 17 19  1  6
 18 20  1  0
 19 21  1  0
 19 22  1  0
 20 23  2  0
 20 24  1  1
 20 25  1  0
 21 26  2  0
 21 27  1  0
 22 28  2  0
 26 28  1  0
 25 29  1  0
 26 30  1  0
 27 31  2  0
 29 32  2  0
 29 33  1  6
 29 34  1  0
 30 35  1  0
 30 36  2  0
 31 36  1  0
 34 37  1  0
 38 37  1  1
 38 39  1  0
 38 40  1  0
 39 41  1  6
 40 42  1  0
 39 43  1  0
 42 43  1  0
 42 44  1  1
 43 45  1  6
M  END
>  <%Rank>  (21) 
7.936508

>  <N_hits>  (21) 
2

>  <submitter_name>  (21) 
nan

>  <original SMILES>  (21) 
nan

>  <∆G_unbound>  (21) 
5.895504

>  <∆G_bound>  (21) 
-18.445838

>  <regarded>  (21) 
mArh-x0962_3_A,mArh-5cb5_J_2_J

>  <ref_pdb>  (21) 
nan

>  <smiles>  (21) 
Nc1ncnc2c1ncn2C1OC(CO[P@@](=O)(O)O[P@@](=O)(O)OCC2OC(O)C(O)C2O)C(OCCC(N)c2cnc[nH]2)C1O

>  <submitter_email>  (21) 
nan

>  <disregarded>  (21) 


>  <LE>  (21) 
-0.540919

>  <submitter_institution>  (21) 
nan

>  <ref_mols>  (21) 
mArh-x0962_3_A,mArh-5cb5_J_2_J

>  <N_constrained_atoms>  (21) 
43.0

>  <ref_url>  (21) 
nan

>  <method>  (21) 
nan

>  <comRMSD>  (21) 
0.603166

>  <N_unconstrained_atoms>  (21) 
2.0

>  <∆∆G>  (21) 
-24.341342

>  <runtime>  (21) 
77.065444

>  <generation_date>  (21) 
nan

$$$$
mArh-x0910_0_A-mArh-6fx_7_0A
     RDKit          3D

 42 46  0  0  0  0  0  0  0  0999 V2000
   -6.9390   13.9070    1.9540 N   0  0  0  0  0  0  0  0  0  0  0  0
   -6.4890   14.6040    0.8910 C   0  0  0  0  0  0  0  0  0  0  0  0
   -7.1110   14.8400   -0.2490 N   0  0  0  0  0  0  0  0  0  0  0  0
   -5.2330   15.2000    0.8490 N   0  0  0  0  0  0  0  0  0  0  0  0
   -4.1790   15.2550    1.7610 N   0  0  0  0  0  0  0  0  0  0  0  0
   -6.2800   15.5920   -1.0450 N   0  0  0  0  0  0  0  0  0  0  0  0
   -5.1800   15.7940   -0.3760 C   0  0  0  0  0  0  0  0  0  0  0  0
   -2.9310   15.0090    1.1770 C   0  0  0  0  0  0  0  0  0  0  0  0
   -1.8080   14.8050    1.9170 N   0  0  0  0  0  0  0  0  0  0  0  0
   -2.8070   14.9660   -0.2080 C   0  0  0  0  0  0  0  0  0  0  0  0
   -1.5530   14.7420   -0.7310 C   0  0  0  0  0  0  0  0  0  0  0  0
   -0.6320   14.5960    1.2670 C   0  0  0  0  0  0  0  0  0  0  0  0
   -3.7350   15.1140   -1.2110 N   0  0  0  0  0  0  0  0  0  0  0  0
   -0.4110   14.5520   -0.0630 N   0  0  0  0  0  0  0  0  0  0  0  0
   -1.7410   14.7660   -2.0860 N   0  0  0  0  0  0  0  0  0  0  0  0
   -3.0650   14.9880   -2.3240 C   0  0  0  0  0  0  0  0  0  0  0  0
   -0.6870   14.5890   -3.0470 C   0  0  2  0  0  0  0  0  0  0  0  0
    0.0430   15.8270   -3.2120 O   0  0  0  0  0  0  0  0  0  0  0  0
   -1.1370   14.2220   -4.4560 C   0  0  2  0  0  0  0  0  0  0  0  0
   -1.5220   12.8400   -4.5810 O   0  0  0  0  0  0  0  0  0  0  0  0
    0.6660   15.7770   -4.5160 C   0  0  1  0  0  0  0  0  0  0  0  0
    0.1700   14.4790   -5.1850 C   0  0  1  0  0  0  0  0  0  0  0  0
    0.4230   17.0790   -5.2740 C   0  0  0  0  0  0  0  0  0  0  0  0
    1.0640   13.4000   -4.9650 O   0  0  0  0  0  0  0  0  0  0  0  0
   -0.8900   17.1110   -5.8140 O   0  0  0  0  0  0  0  0  0  0  0  0
   -1.6000   18.5430   -5.9290 P   0  0  2  0  0  0  0  0  0  0  0  0
   -2.2000   19.0650   -4.6920 O   0  0  0  0  0  0  0  0  0  0  0  0
   -2.5960   18.2810   -7.1220 O   0  0  0  0  0  0  0  0  0  0  0  0
   -0.5160   19.5110   -6.5010 O   0  0  0  0  0  0  0  0  0  0  0  0
   -0.3870   19.9290   -7.9990 P   0  0  2  0  0  0  0  0  0  0  0  0
   -0.0250   18.7890   -8.8880 O   0  0  0  0  0  0  0  0  0  0  0  0
    0.7630   21.0340   -7.8910 O   0  0  0  0  0  0  0  0  0  0  0  0
   -1.6790   20.8030   -8.4490 O   0  0  0  0  0  0  0  0  0  0  0  0
   -1.8940   22.1080   -7.9110 C   0  0  0  0  0  0  0  0  0  0  0  0
   -3.2900   22.7410   -8.1630 C   0  0  2  0  0  0  0  0  0  0  0  0
   -4.5360   21.8380   -8.0370 C   0  0  1  0  0  0  0  0  0  0  0  0
   -3.3860   23.3250   -9.4820 O   0  0  0  0  0  0  0  0  0  0  0  0
   -5.2570   21.9360   -6.8290 O   0  0  0  0  0  0  0  0  0  0  0  0
   -4.3090   22.5270  -10.2270 C   0  0  1  0  0  0  0  0  0  0  0  0
   -5.4050   22.2470   -9.2230 C   0  0  2  0  0  0  0  0  0  0  0  0
   -4.7690   23.2580  -11.3560 O   0  0  0  0  0  0  0  0  0  0  0  0
   -6.1350   23.4470   -8.9060 O   0  0  0  0  0  0  0  0  0  0  0  0
  1  2  1  0
  2  3  2  0
  2  4  1  0
  4  5  1  0
  3  6  1  0
  4  7  1  0
  6  7  2  0
  5  8  1  0
  8  9  2  0
  8 10  1  0
 10 11  2  0
  9 12  1  0
 10 13  1  0
 11 14  1  0
 12 14  2  0
 11 15  1  0
 13 16  2  0
 15 16  1  0
 17 15  1  1
 17 18  1  0
 17 19  1  0
 19 20  1  1
 18 21  1  0
 19 22  1  0
 21 22  1  0
 21 23  1  6
 22 24  1  1
 23 25  1  0
 25 26  1  0
 26 27  2  0
 26 28  1  6
 26 29  1  0
 29 30  1  0
 30 31  2  0
 30 32  1  1
 30 33  1  0
 33 34  1  0
 35 34  1  6
 35 36  1  0
 35 37  1  0
 36 38  1  1
 37 39  1  0
 36 40  1  0
 39 40  1  0
 39 41  1  6
 40 42  1  1
M  END
>  <%Rank>  (22) 
8.333333

>  <N_hits>  (22) 
2

>  <submitter_name>  (22) 
nan

>  <original SMILES>  (22) 
nan

>  <∆G_unbound>  (22) 
5.51058

>  <∆G_bound>  (22) 
-12.059308

>  <regarded>  (22) 
mArh-x0910_0_A,mArh-6fx_7_0A

>  <ref_pdb>  (22) 
nan

>  <smiles>  (22) 
Nc1nncn1Nc1ncnc2c1ncn2C1OC(CO[P@](=O)(O)O[P@](=O)(O)OCC2OC(O)C(O)C2O)C(O)C1O

>  <submitter_email>  (22) 
nan

>  <disregarded>  (22) 


>  <LE>  (22) 
-0.418331

>  <submitter_institution>  (22) 
nan

>  <ref_mols>  (22) 
mArh-x0910_0_A,mArh-6fx_7_0A

>  <N_constrained_atoms>  (22) 
42.0

>  <ref_url>  (22) 
nan

>  <method>  (22) 
nan

>  <comRMSD>  (22) 
0.558205

>  <N_unconstrained_atoms>  (22) 
0.0

>  <∆∆G>  (22) 
-17.569888

>  <runtime>  (22) 
52.079301

>  <generation_date>  (22) 
nan

$$$$
mArh-x0797_0_B-mArh-5cb5_M_1_M
     RDKit          3D

 55 60  0  0  0  0  0  0  0  0999 V2000
   -8.1350   30.0740  -14.7930 C   0  0  0  0  0  0  0  0  0  0  0  0
   -6.8240   29.7060  -14.1510 C   0  0  0  0  0  0  0  0  0  0  0  0
   -5.6820   30.3590  -14.6310 C   0  0  0  0  0  0  0  0  0  0  0  0
   -6.6680   28.7600  -13.1210 C   0  0  0  0  0  0  0  0  0  0  0  0
   -5.3850   28.5180  -12.6130 C   0  0  0  0  0  0  0  0  0  0  0  0
   -4.4170   30.0950  -14.1170 C   0  0  0  0  0  0  0  0  0  0  0  0
   -7.7310   27.9260  -12.4750 C   0  0  1  0  0  0  0  0  0  0  0  0
   -4.2790   29.1740  -13.1060 C   0  0  0  0  0  0  0  0  0  0  0  0
   -7.5270   26.4400  -12.6140 C   0  0  2  0  0  0  0  0  0  0  0  0
   -7.8070   28.0670  -10.9590 C   0  0  0  0  0  0  0  0  0  0  0  0
   -7.6230   25.8510  -13.9840 C   0  0  0  0  0  0  0  0  0  0  0  0
   -8.1450   26.7200  -10.4350 N   0  0  0  0  0  0  0  0  0  0  0  0
   -8.5190   25.9280  -11.6080 C   0  0  0  0  0  0  0  0  0  0  0  0
   -8.5800   26.3450  -14.7890 O   0  0  0  0  0  0  0  0  0  0  0  0
   -6.8720   24.9750  -14.3840 O   0  0  0  0  0  0  0  0  0  0  0  0
   -7.0480   26.0530   -9.7100 C   0  0  0  0  0  0  0  0  0  0  0  0
   -7.6600   24.8940   -8.9390 C   0  0  0  0  0  0  0  0  0  0  0  0
   -6.6720   23.8990   -8.4050 C   0  0  0  0  0  0  0  0  0  0  0  0
   -6.8020   22.7180   -8.6400 O   0  0  0  0  0  0  0  0  0  0  0  0
   -5.6690   24.3960   -7.6310 O   0  0  0  0  0  0  0  0  0  0  0  0
   -4.6270   23.4410   -7.3900 C   0  0  1  0  0  0  0  0  0  0  0  0
   -5.1760   21.9980   -7.4050 C   0  0  2  0  0  0  0  0  0  0  0  0
   -3.7050   23.4820   -8.6030 C   0  0  2  0  0  0  0  0  0  0  0  0
   -5.3480   21.4590   -6.0960 O   0  0  0  0  0  0  0  0  0  0  0  0
   -4.4820   23.8910   -9.7580 O   0  0  0  0  0  0  0  0  0  0  0  0
   -4.2310   21.2020   -8.1150 O   0  0  0  0  0  0  0  0  0  0  0  0
   -3.2650   22.0300   -8.7590 C   0  0  2  0  0  0  0  0  0  0  0  0
   -1.9240   21.6970   -8.1070 C   0  0  0  0  0  0  0  0  0  0  0  0
   -1.4970   20.4570   -8.6110 O   0  0  0  0  0  0  0  0  0  0  0  0
   -0.2540   19.7090   -7.9720 P   0  0  2  0  0  0  0  0  0  0  0  0
    0.2290   18.6180   -8.8340 O   0  0  0  0  0  0  0  0  0  0  0  0
   -0.5520   19.2910   -6.4890 O   0  0  0  0  0  0  0  0  0  0  0  0
    0.8420   20.8680   -7.7870 O   0  0  0  0  0  0  0  0  0  0  0  0
   -1.7990   18.4290   -6.0600 P   0  0  2  0  0  0  0  0  0  0  0  0
   -1.1620   17.1350   -5.3640 O   0  0  0  0  0  0  0  0  0  0  0  0
   -2.7870   18.1050   -7.1050 O   0  0  0  0  0  0  0  0  0  0  0  0
   -2.3120   19.3330   -4.8450 O   0  0  0  0  0  0  0  0  0  0  0  0
    0.2480   16.9680   -5.2670 C   0  0  0  0  0  0  0  0  0  0  0  0
    0.6210   15.6930   -4.4930 C   0  0  1  0  0  0  0  0  0  0  0  0
   -0.0310   15.7220   -3.2130 O   0  0  0  0  0  0  0  0  0  0  0  0
    0.2050   14.3500   -5.1320 C   0  0  1  0  0  0  0  0  0  0  0  0
    1.2990   13.4750   -5.3490 O   0  0  0  0  0  0  0  0  0  0  0  0
   -0.7720   13.7150   -4.1280 C   0  0  2  0  0  0  0  0  0  0  0  0
   -1.2310   14.9710   -3.4170 C   0  0  1  0  0  0  0  0  0  0  0  0
   -0.1030   12.7280   -3.3580 O   0  0  0  0  0  0  0  0  0  0  0  0
   -2.0310   15.0020   -2.1980 N   0  0  0  0  0  0  0  0  0  0  0  0
   -1.6200   14.9100   -0.8790 C   0  0  0  0  0  0  0  0  0  0  0  0
   -3.3890   15.1840   -2.1930 C   0  0  0  0  0  0  0  0  0  0  0  0
   -2.8000   15.0870   -0.1620 C   0  0  0  0  0  0  0  0  0  0  0  0
   -0.3920   14.7250   -0.3560 N   0  0  0  0  0  0  0  0  0  0  0  0
   -3.8860   15.2400   -0.9870 N   0  0  0  0  0  0  0  0  0  0  0  0
   -2.7020   15.1000    1.2220 C   0  0  0  0  0  0  0  0  0  0  0  0
   -0.4360   14.7290    0.9940 C   0  0  0  0  0  0  0  0  0  0  0  0
   -3.8050   15.3340    2.0060 N   0  0  0  0  0  0  0  0  0  0  0  0
   -1.5020   14.9000    1.7970 N   0  0  0  0  0  0  0  0  0  0  0  0
  1  2  1  0
  2  3  2  0
  2  4  1  0
  4  5  2  0
  3  6  1  0
  7  4  1  1
  5  8  1  0
  6  8  2  0
  7  9  1  0
  7 10  1  0
  9 11  1  6
 10 12  1  0
  9 13  1  0
 12 13  1  0
 11 14  1  0
 11 15  2  0
 12 16  1  0
 16 17  1  0
 17 18  1  0
 18 19  2  0
 18 20  1  0
 21 20  1  6
 21 22  1  0
 21 23  1  0
 22 24  1  1
 23 25  1  6
 22 26  1  0
 23 27  1  0
 26 27  1  0
 27 28  1  1
 28 29  1  0
 29 30  1  0
 30 31  2  0
 30 32  1  0
 30 33  1  1
 32 34  1  0
 34 35  1  0
 34 36  2  0
 34 37  1  1
 35 38  1  0
 39 38  1  6
 39 40  1  0
 39 41  1  0
 41 42  1  1
 41 43  1  0
 40 44  1  0
 43 44  1  0
 43 45  1  1
 44 46  1  1
 46 47  1  0
 46 48  1  0
 47 49  2  0
 47 50  1  0
 48 51  2  0
 49 51  1  0
 49 52  1  0
 50 53  2  0
 52 54  1  0
 52 55  2  0
 53 55  1  0
M  END
>  <%Rank>  (23) 
8.730159

>  <N_hits>  (23) 
2

>  <submitter_name>  (23) 
nan

>  <original SMILES>  (23) 
nan

>  <∆G_unbound>  (23) 
4.854784

>  <∆G_bound>  (23) 
-16.646233

>  <regarded>  (23) 
mArh-x0797_0_B,mArh-5cb5_M_1_M

>  <ref_pdb>  (23) 
nan

>  <smiles>  (23) 
Cc1ccccc1C1CN(CCC(=O)OC2C(O)OC(CO[P@@](=O)(O)O[P@](=O)(O)OCC3OC(n4cnc5c(N)ncnc54)C(O)C3O)C2O)CC1C(=O)O

>  <submitter_email>  (23) 
nan

>  <disregarded>  (23) 


>  <LE>  (23) 
-0.390928

>  <submitter_institution>  (23) 
nan

>  <ref_mols>  (23) 
mArh-x0797_0_B,mArh-5cb5_M_1_M

>  <N_constrained_atoms>  (23) 
54.0

>  <ref_url>  (23) 
nan

>  <method>  (23) 
nan

>  <comRMSD>  (23) 
0.619271

>  <N_unconstrained_atoms>  (23) 
1.0

>  <∆∆G>  (23) 
-21.501017

>  <runtime>  (23) 
62.142169

>  <generation_date>  (23) 
nan

$$$$
mArh-x0950_0_A-mArh-5cms_Q_16_Q
     RDKit          3D

 41 44  0  0  0  0  0  0  0  0999 V2000
    1.6180   13.3730   -4.9070 C   0  0  0  0  0  0  0  0  0  0  0  0
    1.3850   11.9380   -4.5240 C   0  0  2  0  0  0  0  0  0  0  0  0
    0.3910   11.4200   -5.3970 O   0  0  0  0  0  0  0  0  0  0  0  0
    0.3810   14.2780   -4.9960 C   0  0  2  0  0  0  0  0  0  0  0  0
    1.0070   11.7790   -3.0540 C   0  0  0  0  0  0  0  0  0  0  0  0
    0.6980   15.5430   -4.3290 C   0  0  1  0  0  0  0  0  0  0  0  0
   -0.9450   13.7730   -4.3270 C   0  0  1  0  0  0  0  0  0  0  0  0
    0.1990   10.9730   -2.6260 O   0  0  0  0  0  0  0  0  0  0  0  0
    1.6580   12.6210   -2.2300 O   0  0  0  0  0  0  0  0  0  0  0  0
    0.3250   16.8160   -5.1040 C   0  0  0  0  0  0  0  0  0  0  0  0
   -1.0000   12.4260   -3.9040 O   0  0  0  0  0  0  0  0  0  0  0  0
    0.0120   15.5180   -3.0730 O   0  0  0  0  0  0  0  0  0  0  0  0
   -1.2590   14.9310   -3.3740 C   0  0  2  0  0  0  0  0  0  0  0  0
   -1.0330   17.1070   -4.8860 O   0  0  0  0  0  0  0  0  0  0  0  0
   -2.1320   14.9710   -2.2040 N   0  0  0  0  0  0  0  0  0  0  0  0
   -1.8830   17.8700   -5.9850 P   0  0  1  0  0  0  0  0  0  0  0  0
   -1.7810   14.8800   -0.8680 C   0  0  0  0  0  0  0  0  0  0  0  0
   -3.5010   15.1660   -2.2810 C   0  0  0  0  0  0  0  0  0  0  0  0
   -3.0520   17.1520   -6.5110 O   0  0  0  0  0  0  0  0  0  0  0  0
   -2.2670   19.2410   -5.2420 O   0  0  0  0  0  0  0  0  0  0  0  0
   -0.9820   18.2060   -7.2130 O   0  0  0  0  0  0  0  0  0  0  0  0
   -3.1180   15.0920   -0.2060 C   0  0  0  0  0  0  0  0  0  0  0  0
   -0.5840   14.6880   -0.2850 N   0  0  0  0  0  0  0  0  0  0  0  0
   -4.1170   15.2410   -1.1160 N   0  0  0  0  0  0  0  0  0  0  0  0
   -0.5280   19.6420   -7.6680 P   0  0  1  0  0  0  0  0  0  0  0  0
   -2.9750   15.0970    1.2820 C   0  0  0  0  0  0  0  0  0  0  0  0
   -0.6740   14.7000    1.0620 C   0  0  0  0  0  0  0  0  0  0  0  0
    0.8980   19.9820   -7.5410 O   0  0  0  0  0  0  0  0  0  0  0  0
   -1.0240   19.6520   -9.1650 O   0  0  0  0  0  0  0  0  0  0  0  0
   -1.5750   20.7330   -7.1660 O   0  0  0  0  0  0  0  0  0  0  0  0
   -4.0700   15.3290    2.0940 N   0  0  0  0  0  0  0  0  0  0  0  0
   -1.7600   14.8850    1.8460 N   0  0  0  0  0  0  0  0  0  0  0  0
   -1.3530   22.0640   -7.6550 C   0  0  0  0  0  0  0  0  0  0  0  0
   -1.1560   22.0940   -9.1810 C   0  0  2  0  0  0  0  0  0  0  0  0
   -0.7940   23.4660   -9.7920 C   0  0  1  0  0  0  0  0  0  0  0  0
   -2.3440   21.6040   -9.8710 O   0  0  0  0  0  0  0  0  0  0  0  0
    0.3520   23.5280  -10.6690 O   0  0  0  0  0  0  0  0  0  0  0  0
   -2.5520   22.4300  -11.0230 C   0  0  2  0  0  0  0  0  0  0  0  0
   -1.9140   23.7140  -10.5790 C   0  0  2  0  0  0  0  0  0  0  0  0
   -3.9420   22.5690  -11.2850 O   0  0  0  0  0  0  0  0  0  0  0  0
   -1.5500   24.5490  -11.6840 O   0  0  0  0  0  0  0  0  0  0  0  0
  1  2  1  0
  2  3  1  6
  4  1  1  1
  2  5  1  0
  4  6  1  0
  4  7  1  0
  5  8  2  0
  5  9  1  0
  6 10  1  6
  7 11  1  1
  6 12  1  0
  7 13  1  0
 12 13  1  0
 10 14  1  0
 13 15  1  1
 14 16  1  0
 15 17  1  0
 15 18  1  0
 16 19  2  0
 16 20  1  1
 16 21  1  0
 17 22  2  0
 17 23  1  0
 18 24  2  0
 22 24  1  0
 21 25  1  0
 22 26  1  0
 23 27  2  0
 25 28  2  0
 25 29  1  6
 25 30  1  0
 26 31  1  0
 26 32  2  0
 27 32  1  0
 30 33  1  0
 34 33  1  1
 34 35  1  0
 34 36  1  0
 35 37  1  6
 36 38  1  0
 35 39  1  0
 38 39  1  0
 38 40  1  1
 39 41  1  6
M  END
>  <%Rank>  (24) 
9.126984

>  <N_hits>  (24) 
2

>  <submitter_name>  (24) 
nan

>  <original SMILES>  (24) 
nan

>  <∆G_unbound>  (24) 
3.971865

>  <∆G_bound>  (24) 
-7.566415

>  <regarded>  (24) 
mArh-x0950_0_A,mArh-5cms_Q_16_Q

>  <ref_pdb>  (24) 
nan

>  <smiles>  (24) 
Nc1ncnc2c1ncn2C1OC(CO[P@@](=O)(O)O[P@@](=O)(O)OCC2OC(O)C(O)C2O)C(C[C@H](O)C(=O)O)C1O

>  <submitter_email>  (24) 
nan

>  <disregarded>  (24) 


>  <LE>  (24) 
-0.281421

>  <submitter_institution>  (24) 
nan

>  <ref_mols>  (24) 
mArh-x0950_0_A,mArh-5cms_Q_16_Q

>  <N_constrained_atoms>  (24) 
41.0

>  <ref_url>  (24) 
nan

>  <method>  (24) 
nan

>  <comRMSD>  (24) 
0.48981

>  <N_unconstrained_atoms>  (24) 
0.0

>  <∆∆G>  (24) 
-11.538279

>  <runtime>  (24) 
47.311453

>  <generation_date>  (24) 
nan

$$$$
mArh-6woj_A_0_A-mArh-2bfq_0_A
     RDKit          3D

 37 40  0  0  0  0  0  0  0  0999 V2000
   -1.1640   18.2400   -5.8600 P   0  0  2  0  0  0  0  0  0  0  0  0
    0.0420   17.2680   -6.2540 O   0  0  0  0  0  0  0  0  0  0  0  0
    1.0000   16.7870   -5.3240 C   0  0  0  0  0  0  0  0  0  0  0  0
   -1.5210   18.3210   -4.4330 O   0  0  0  0  0  0  0  0  0  0  0  0
   -2.3840   17.6930   -6.7340 O   0  0  0  0  0  0  0  0  0  0  0  0
   -0.7660   19.6050   -6.4580 O   0  0  0  0  0  0  0  0  0  0  0  0
   -0.0660   20.0300   -7.7840 P   0  0  1  0  0  0  0  0  0  0  0  0
    1.1790   20.8590   -7.5900 O   0  0  0  0  0  0  0  0  0  0  0  0
    0.0980   18.7400   -8.7220 O   0  0  0  0  0  0  0  0  0  0  0  0
   -1.2170   20.7960   -8.5450 O   0  0  0  0  0  0  0  0  0  0  0  0
    0.4160   15.5190   -4.7300 C   0  0  2  0  0  0  0  0  0  0  0  0
   -1.6840   21.9580   -7.8900 C   0  0  0  0  0  0  0  0  0  0  0  0
    0.4020   15.3960   -3.3250 O   0  0  0  0  0  0  0  0  0  0  0  0
    0.7090   14.0910   -5.1680 C   0  0  1  0  0  0  0  0  0  0  0  0
    1.9600   13.5190   -4.8180 O   0  0  0  0  0  0  0  0  0  0  0  0
   -0.4520   13.4380   -4.3970 C   0  0  2  0  0  0  0  0  0  0  0  0
   -0.7970   14.6280   -3.4670 C   0  0  1  0  0  0  0  0  0  0  0  0
   -3.1510   22.1600   -8.2300 C   0  0  2  0  0  0  0  0  0  0  0  0
   -0.0320   12.2370   -3.7710 O   0  0  0  0  0  0  0  0  0  0  0  0
   -3.6120   23.5810   -7.9010 C   0  0  1  0  0  0  0  0  0  0  0  0
   -3.9220   21.2620   -7.4140 O   0  0  0  0  0  0  0  0  0  0  0  0
   -1.6620   14.6710   -2.3170 N   0  0  0  0  0  0  0  0  0  0  0  0
   -4.4910   24.0870   -8.8970 O   0  0  0  0  0  0  0  0  0  0  0  0
   -4.9290   22.0080   -6.7670 C   0  0  0  0  0  0  0  0  0  0  0  0
   -4.3030   23.3870   -6.5610 C   0  0  2  0  0  0  0  0  0  0  0  0
   -1.4410   14.5970   -0.9580 C   0  0  0  0  0  0  0  0  0  0  0  0
   -3.0040   14.8500   -2.5080 C   0  0  0  0  0  0  0  0  0  0  0  0
   -5.2670   21.4320   -5.5370 O   0  0  0  0  0  0  0  0  0  0  0  0
   -5.3270   24.3810   -6.3610 O   0  0  0  0  0  0  0  0  0  0  0  0
   -6.0770   22.1090   -7.5690 O   0  0  0  0  0  0  0  0  0  0  0  0
   -2.7130   14.7600   -0.4220 C   0  0  0  0  0  0  0  0  0  0  0  0
   -0.3050   14.4240   -0.2610 N   0  0  0  0  0  0  0  0  0  0  0  0
   -3.6710   14.9070   -1.3940 N   0  0  0  0  0  0  0  0  0  0  0  0
   -2.8340   14.7570    0.9570 C   0  0  0  0  0  0  0  0  0  0  0  0
   -0.5480   14.4270    1.0750 C   0  0  0  0  0  0  0  0  0  0  0  0
   -4.0630   14.9360    1.5610 N   0  0  0  0  0  0  0  0  0  0  0  0
   -1.7310   14.5810    1.7130 N   0  0  0  0  0  0  0  0  0  0  0  0
  1  2  1  0
  2  3  1  0
  1  4  2  0
  1  5  1  6
  1  6  1  0
  6  7  1  0
  7  8  2  0
  7  9  1  6
  7 10  1  0
 11  3  1  1
 10 12  1  0
 11 13  1  0
 11 14  1  0
 14 15  1  1
 14 16  1  0
 13 17  1  0
 16 17  1  0
 18 12  1  1
 16 19  1  1
 18 20  1  0
 18 21  1  0
 17 22  1  1
 20 23  1  6
 21 24  1  0
 20 25  1  0
 24 25  1  0
 22 26  1  0
 22 27  1  0
 24 28  1  0
 25 29  1  6
 24 30  1  0
 26 31  2  0
 26 32  1  0
 27 33  2  0
 31 33  1  0
 31 34  1  0
 32 35  2  0
 34 36  1  0
 34 37  2  0
 35 37  1  0
M  END
>  <%Rank>  (25) 
9.52381

>  <N_hits>  (25) 
2

>  <submitter_name>  (25) 
nan

>  <original SMILES>  (25) 
nan

>  <∆G_unbound>  (25) 
8.403687

>  <∆G_bound>  (25) 
-19.608857

>  <regarded>  (25) 
mArh-6woj_A_0_A,mArh-2bfq_0_A

>  <ref_pdb>  (25) 
nan

>  <smiles>  (25) 
Nc1ncnc2c1ncn2C1OC(CO[P@](=O)(O)O[P@@](=O)(O)OCC2OC(O)(O)C(O)C2O)C(O)C1O

>  <submitter_email>  (25) 
nan

>  <disregarded>  (25) 


>  <LE>  (25) 
-0.757096

>  <submitter_institution>  (25) 
nan

>  <ref_mols>  (25) 
mArh-6woj_A_0_A,mArh-2bfq_0_A

>  <N_constrained_atoms>  (25) 
37.0

>  <ref_url>  (25) 
nan

>  <method>  (25) 
nan

>  <comRMSD>  (25) 
0.693405

>  <N_unconstrained_atoms>  (25) 
0.0

>  <∆∆G>  (25) 
-28.012544

>  <runtime>  (25) 
42.99285

>  <generation_date>  (25) 
nan

$$$$
mArh-5cb5_Q_0_Q-mArh-x0436_0_B
     RDKit          3D

 53 57  0  0  0  0  0  0  0  0999 V2000
   -1.6350   18.3370   -6.2230 P   0  0  1  0  0  0  0  0  0  0  0  0
   -0.2540   17.5840   -6.4900 O   0  0  0  0  0  0  0  0  0  0  0  0
    0.5680   17.1470   -5.4240 C   0  0  0  0  0  0  0  0  0  0  0  0
   -2.8310   17.7210   -6.8430 O   0  0  0  0  0  0  0  0  0  0  0  0
   -1.7490   18.4540   -4.6320 O   0  0  0  0  0  0  0  0  0  0  0  0
   -1.2890   19.8060   -6.6120 O   0  0  0  0  0  0  0  0  0  0  0  0
   -0.5120   20.1660   -7.9240 P   0  0  1  0  0  0  0  0  0  0  0  0
    0.6300   21.1100   -7.8160 O   0  0  0  0  0  0  0  0  0  0  0  0
   -0.0170   18.7450   -8.5070 O   0  0  0  0  0  0  0  0  0  0  0  0
   -1.6750   20.4930   -8.9470 O   0  0  0  0  0  0  0  0  0  0  0  0
   -0.1340   15.9640   -4.8130 C   0  0  2  0  0  0  0  0  0  0  0  0
   -2.2420   21.7780   -9.0750 C   0  0  0  0  0  0  0  0  0  0  0  0
    0.0470   15.9170   -3.4000 O   0  0  0  0  0  0  0  0  0  0  0  0
    0.2670   14.5650   -5.2440 C   0  0  1  0  0  0  0  0  0  0  0  0
    1.5940   14.1760   -4.8600 O   0  0  0  0  0  0  0  0  0  0  0  0
   -0.7250   13.8630   -4.3410 C   0  0  2  0  0  0  0  0  0  0  0  0
   -0.4220   14.5940   -3.0280 C   0  0  2  0  0  0  0  0  0  0  0  0
   -3.3600   22.1500   -8.1690 C   0  0  1  0  0  0  0  0  0  0  0  0
   -0.4680   12.4610   -4.3070 O   0  0  0  0  0  0  0  0  0  0  0  0
   -3.9300   23.5660   -8.2890 C   0  0  1  0  0  0  0  0  0  0  0  0
   -4.5190   21.3560   -8.3350 O   0  0  0  0  0  0  0  0  0  0  0  0
   -1.5020   14.7740   -2.0930 N   0  0  0  0  0  0  0  0  0  0  0  0
   -4.9040   23.8450   -9.3700 O   0  0  0  0  0  0  0  0  0  0  0  0
   -5.4010   21.9640   -7.3930 C   0  0  2  0  0  0  0  0  0  0  0  0
   -4.7840   23.3320   -7.0550 C   0  0  2  0  0  0  0  0  0  0  0  0
   -1.3470   14.7540   -0.7580 C   0  0  0  0  0  0  0  0  0  0  0  0
   -2.8350   14.9980   -2.3610 C   0  0  0  0  0  0  0  0  0  0  0  0
   -5.4540   21.2120   -6.1860 O   0  0  0  0  0  0  0  0  0  0  0  0
   -5.7820   24.2890   -6.7650 O   0  0  0  0  0  0  0  0  0  0  0  0
   -4.5230   24.2290  -10.7210 C   0  0  0  0  0  0  0  0  0  0  0  0
   -2.6120   14.9780   -0.2470 C   0  0  0  0  0  0  0  0  0  0  0  0
   -0.2100   14.5640   -0.0960 N   0  0  0  0  0  0  0  0  0  0  0  0
   -3.5370   15.1300   -1.2530 N   0  0  0  0  0  0  0  0  0  0  0  0
   -5.5560   25.1630  -11.4240 C   0  0  0  0  0  0  0  0  0  0  0  0
   -2.7100   15.0170    1.1380 C   0  0  0  0  0  0  0  0  0  0  0  0
   -0.4290   14.6040    1.2230 C   0  0  0  0  0  0  0  0  0  0  0  0
   -3.9120   15.2660    1.7730 N   0  0  0  0  0  0  0  0  0  0  0  0
   -5.1210   25.8360  -12.7570 C   0  0  0  0  0  0  0  0  0  0  0  0
   -1.5930   14.8090    1.8660 N   0  0  0  0  0  0  0  0  0  0  0  0
   -4.0780   26.9880  -12.6640 C   0  0  0  0  0  0  0  0  0  0  0  0
   -4.5600   28.4200  -12.2270 C   0  0  0  0  0  0  0  0  0  0  0  0
   -5.9860   28.7000  -12.5060 C   0  0  0  0  0  0  0  0  0  0  0  0
   -6.8880   29.0430  -11.4890 C   0  0  0  0  0  0  0  0  0  0  0  0
   -6.4270   28.6120  -13.8160 C   0  0  0  0  0  0  0  0  0  0  0  0
   -8.2220   29.2870  -11.8100 C   0  0  0  0  0  0  0  0  0  0  0  0
   -7.7530   28.8550  -14.1310 C   0  0  0  0  0  0  0  0  0  0  0  0
   -8.6560   29.1910  -13.1340 C   0  0  0  0  0  0  0  0  0  0  0  0
   -9.9780   29.4470  -13.3290 O   0  0  0  0  0  0  0  0  0  0  0  0
  -10.3210   30.2640  -14.4370 C   0  0  2  0  0  0  0  0  0  0  0  0
  -11.7970   30.6060  -14.2610 C   0  0  0  0  0  0  0  0  0  0  0  0
  -10.1080   29.6030  -15.8150 C   0  0  0  0  0  0  0  0  0  0  0  0
  -10.3590   28.2550  -15.8720 N   0  0  0  0  0  0  0  0  0  0  0  0
   -9.7490   30.1890  -16.8290 O   0  0  0  0  0  0  0  0  0  0  0  0
  1  2  1  0
  2  3  1  0
  1  4  2  0
  1  5  1  1
  1  6  1  0
  6  7  1  0
  7  8  2  0
  7  9  1  6
  7 10  1  0
 11  3  1  6
 10 12  1  0
 11 13  1  0
 11 14  1  0
 14 15  1  1
 14 16  1  0
 13 17  1  0
 16 17  1  0
 18 12  1  6
 16 19  1  1
 18 20  1  0
 18 21  1  0
 17 22  1  1
 20 23  1  6
 21 24  1  0
 20 25  1  0
 24 25  1  0
 22 26  1  0
 22 27  1  0
 24 28  1  1
 25 29  1  6
 23 30  1  0
 26 31  2  0
 26 32  1  0
 27 33  2  0
 31 33  1  0
 30 34  1  0
 31 35  1  0
 32 36  2  0
 35 37  1  0
 34 38  1  0
 35 39  2  0
 36 39  1  0
 38 40  1  0
 40 41  1  0
 41 42  1  0
 42 43  2  0
 42 44  1  0
 43 45  1  0
 44 46  2  0
 45 47  2  0
 46 47  1  0
 47 48  1  0
 48 49  1  0
 49 50  1  1
 49 51  1  0
 51 52  1  0
 51 53  2  0
M  END
>  <%Rank>  (26) 
9.920635

>  <N_hits>  (26) 
2

>  <submitter_name>  (26) 
nan

>  <original SMILES>  (26) 
nan

>  <∆G_unbound>  (26) 
2.717178

>  <∆G_bound>  (26) 
-18.961881

>  <regarded>  (26) 
mArh-5cb5_Q_0_Q,mArh-x0436_0_B

>  <ref_pdb>  (26) 
nan

>  <smiles>  (26) 
C[C@@H](Oc1ccc(CCCCCOC2C(CO[P@](=O)(O)O[P@](=O)(O)OCC3OC(n4cnc5c(N)ncnc54)C(O)C3O)OC(O)C2O)cc1)C(N)=O

>  <submitter_email>  (26) 
nan

>  <disregarded>  (26) 


>  <LE>  (26) 
-0.409039

>  <submitter_institution>  (26) 
nan

>  <ref_mols>  (26) 
mArh-5cb5_Q_0_Q,mArh-x0436_0_B

>  <N_constrained_atoms>  (26) 
49.0

>  <ref_url>  (26) 
nan

>  <method>  (26) 
nan

>  <comRMSD>  (26) 
0.572327

>  <N_unconstrained_atoms>  (26) 
4.0

>  <∆∆G>  (26) 
-21.679059

>  <runtime>  (26) 
72.293155

>  <generation_date>  (26) 
nan

$$$$
mArh-x0900_0_A-mArh-5cb5_H_0_H
     RDKit          3D

 42 46  0  0  0  0  0  0  0  0999 V2000
   -7.6920   14.8050   -0.6170 O   0  0  0  0  0  0  0  0  0  0  0  0
   -6.5260   14.8010   -0.2890 C   0  0  0  0  0  0  0  0  0  0  0  0
   -5.4710   14.9280   -1.1610 N   0  0  0  0  0  0  0  0  0  0  0  0
   -5.9730   14.6560    1.1190 C   0  0  0  0  0  0  0  0  0  0  0  0
   -4.7030   15.4500    0.9440 C   0  0  2  0  0  0  0  0  0  0  0  0
   -4.2480   14.9810   -0.4290 C   0  0  0  0  0  0  0  0  0  0  0  0
   -3.7230   15.3650    1.9560 N   0  0  0  0  0  0  0  0  0  0  0  0
   -2.5370   15.0420    1.3850 C   0  0  0  0  0  0  0  0  0  0  0  0
   -1.4230   14.7850    2.0520 N   0  0  0  0  0  0  0  0  0  0  0  0
   -2.4890   14.9770   -0.0020 C   0  0  0  0  0  0  0  0  0  0  0  0
   -1.2850   14.6630   -0.5700 C   0  0  0  0  0  0  0  0  0  0  0  0
   -0.3100   14.4940    1.3750 C   0  0  0  0  0  0  0  0  0  0  0  0
   -3.4540   15.1770   -0.9740 N   0  0  0  0  0  0  0  0  0  0  0  0
   -0.1330   14.4100    0.0480 N   0  0  0  0  0  0  0  0  0  0  0  0
   -1.5220   14.6690   -1.9060 N   0  0  0  0  0  0  0  0  0  0  0  0
   -2.8340   14.9800   -2.1090 C   0  0  0  0  0  0  0  0  0  0  0  0
   -0.5210   14.3930   -2.8640 C   0  0  2  0  0  0  0  0  0  0  0  0
    0.1010   15.6470   -3.2520 O   0  0  0  0  0  0  0  0  0  0  0  0
   -0.9460   13.6780   -4.1470 C   0  0  2  0  0  0  0  0  0  0  0  0
   -0.6630   12.2830   -4.1970 O   0  0  0  0  0  0  0  0  0  0  0  0
   -0.2880   15.8090   -4.6060 C   0  0  2  0  0  0  0  0  0  0  0  0
   -0.1130   14.3940   -5.1640 C   0  0  1  0  0  0  0  0  0  0  0  0
    0.4620   16.9760   -5.2370 C   0  0  0  0  0  0  0  0  0  0  0  0
    1.1870   13.8180   -5.0920 O   0  0  0  0  0  0  0  0  0  0  0  0
   -0.2440   17.4590   -6.3790 O   0  0  0  0  0  0  0  0  0  0  0  0
   -1.6230   18.2730   -6.1810 P   0  0  1  0  0  0  0  0  0  0  0  0
   -2.7480   17.6310   -6.9020 O   0  0  0  0  0  0  0  0  0  0  0  0
   -1.7380   18.3970   -4.6090 O   0  0  0  0  0  0  0  0  0  0  0  0
   -1.1940   19.6890   -6.6810 O   0  0  0  0  0  0  0  0  0  0  0  0
   -0.3080   19.9980   -7.9370 P   0  0  1  0  0  0  0  0  0  0  0  0
    0.9480   20.7560   -7.6650 O   0  0  0  0  0  0  0  0  0  0  0  0
   -0.0550   18.6230   -8.7180 O   0  0  0  0  0  0  0  0  0  0  0  0
   -1.3170   20.7610   -8.9090 O   0  0  0  0  0  0  0  0  0  0  0  0
   -1.8500   21.9780   -8.4160 C   0  0  0  0  0  0  0  0  0  0  0  0
   -3.3100   22.1530   -8.8290 C   0  0  2  0  0  0  0  0  0  0  0  0
   -3.8590   23.5360   -8.4520 C   0  0  1  0  0  0  0  0  0  0  0  0
   -4.1400   21.1840   -8.1390 O   0  0  0  0  0  0  0  0  0  0  0  0
   -4.7120   24.0890   -9.4550 O   0  0  0  0  0  0  0  0  0  0  0  0
   -5.1330   21.8660   -7.3570 C   0  0  2  0  0  0  0  0  0  0  0  0
   -4.5440   23.2420   -7.2820 C   0  0  2  0  0  0  0  0  0  0  0  0
   -5.2400   21.3050   -6.0590 O   0  0  0  0  0  0  0  0  0  0  0  0
   -5.6210   24.1830   -7.0960 O   0  0  0  0  0  0  0  0  0  0  0  0
  1  2  2  0
  2  3  1  0
  2  4  1  0
  4  5  1  0
  3  6  1  0
  5  6  1  0
  5  7  1  1
  7  8  1  0
  8  9  2  0
  8 10  1  0
 10 11  2  0
  9 12  1  0
 10 13  1  0
 11 14  1  0
 12 14  2  0
 11 15  1  0
 13 16  2  0
 15 16  1  0
 17 15  1  1
 17 18  1  0
 17 19  1  0
 19 20  1  1
 18 21  1  0
 19 22  1  0
 21 22  1  0
 21 23  1  6
 22 24  1  1
 23 25  1  0
 25 26  1  0
 26 27  2  0
 26 28  1  1
 26 29  1  0
 29 30  1  0
 30 31  2  0
 30 32  1  6
 30 33  1  0
 33 34  1  0
 35 34  1  1
 35 36  1  0
 35 37  1  0
 36 38  1  6
 37 39  1  0
 36 40  1  0
 39 40  1  0
 39 41  1  1
 40 42  1  6
M  END
>  <%Rank>  (27) 
10.31746

>  <N_hits>  (27) 
2

>  <submitter_name>  (27) 
nan

>  <original SMILES>  (27) 
nan

>  <∆G_unbound>  (27) 
5.812642

>  <∆G_bound>  (27) 
-9.563113

>  <regarded>  (27) 
mArh-x0900_0_A,mArh-5cb5_H_0_H

>  <ref_pdb>  (27) 
nan

>  <smiles>  (27) 
O=C1CC(Nc2ncnc3c2ncn3C2OC(CO[P@@](=O)(O)O[P@@](=O)(O)OCC3OC(O)C(O)C3O)C(O)C2O)CN1

>  <submitter_email>  (27) 
nan

>  <disregarded>  (27) 


>  <LE>  (27) 
-0.366089

>  <submitter_institution>  (27) 
nan

>  <ref_mols>  (27) 
mArh-x0900_0_A,mArh-5cb5_H_0_H

>  <N_constrained_atoms>  (27) 
42.0

>  <ref_url>  (27) 
nan

>  <method>  (27) 
nan

>  <comRMSD>  (27) 
0.562226

>  <N_unconstrained_atoms>  (27) 
0.0

>  <∆∆G>  (27) 
-15.375755

>  <runtime>  (27) 
62.163181

>  <generation_date>  (27) 
nan

$$$$
mArh-x0465_0_A-mArh-x0681_0_A
     RDKit          3D

 27 29  0  0  0  0  0  0  0  0999 V2000
    2.1920   13.1770   -4.7500 C   0  0  0  0  0  0  0  0  0  0  0  0
    0.8070   12.5800   -4.5210 C   0  0  1  0  0  0  0  0  0  0  0  0
    0.6360   11.5180   -5.4630 O   0  0  0  0  0  0  0  0  0  0  0  0
    0.6740   12.0130   -3.0990 C   0  0  0  0  0  0  0  0  0  0  0  0
    0.5270   12.6110   -1.9820 N   0  0  0  0  0  0  0  0  0  0  0  0
    0.6980   10.6800   -2.9650 O   0  0  0  0  0  0  0  0  0  0  0  0
   -0.5580   10.8700   -5.5840 C   0  0  0  0  0  0  0  0  0  0  0  0
    0.4240   14.0600   -1.8570 C   0  0  0  0  0  0  0  0  0  0  0  0
   -0.5950    9.7370   -6.6050 C   0  0  0  0  0  0  0  0  0  0  0  0
   -1.7200   11.1570   -4.8620 C   0  0  0  0  0  0  0  0  0  0  0  0
    0.4840    9.4120   -7.3370 F   0  0  0  0  0  0  0  0  0  0  0  0
   -0.9100   14.4150   -1.1930 C   0  0  0  0  0  0  0  0  0  0  0  0
   -1.8740    8.9480   -6.8120 C   0  0  0  0  0  0  0  0  0  0  0  0
   -2.8860   10.4450   -5.0480 C   0  0  0  0  0  0  0  0  0  0  0  0
   -1.9250   14.8410   -2.1740 N   0  0  0  0  0  0  0  0  0  0  0  0
   -2.9830    9.2920   -6.0570 C   0  0  0  0  0  0  0  0  0  0  0  0
   -3.1700   14.8660   -1.8430 C   0  0  0  0  0  0  0  0  0  0  0  0
   -4.2290   15.2570   -2.6310 N   0  0  0  0  0  0  0  0  0  0  0  0
   -3.5380   14.4210   -0.4230 C   0  0  2  0  0  0  0  0  0  0  0  0
   -4.6520   13.4370   -0.5260 C   0  0  0  0  0  0  0  0  0  0  0  0
   -3.9770   15.5400    0.5110 C   0  0  0  0  0  0  0  0  0  0  0  0
   -5.4190   13.1940    0.5880 N   0  0  0  0  0  0  0  0  0  0  0  0
   -4.4200   15.0060    1.8630 C   0  0  0  0  0  0  0  0  0  0  0  0
   -5.0330   12.7310   -1.5800 N   0  0  0  0  0  0  0  0  0  0  0  0
   -5.1990   13.8300    1.8490 C   0  0  0  0  0  0  0  0  0  0  0  0
   -6.3760   12.2800    0.2940 C   0  0  0  0  0  0  0  0  0  0  0  0
   -6.1010   11.9790   -1.1620 C   0  0  0  0  0  0  0  0  0  0  0  0
  2  1  1  1
  2  3  1  0
  2  4  1  0
  4  5  2  3
  4  6  1  0
  3  7  1  0
  5  8  1  0
  7  9  2  0
  7 10  1  0
  9 11  1  0
  8 12  1  0
  9 13  1  0
 10 14  2  0
 12 15  1  0
 13 16  2  0
 14 16  1  0
 15 17  2  3
 17 18  1  0
 19 17  1  6
 19 20  1  0
 19 21  1  0
 20 22  1  0
 21 23  1  0
 20 24  2  0
 22 25  1  0
 23 25  1  0
 22 26  1  0
 24 27  1  0
 26 27  2  0
M  END
>  <%Rank>  (28) 
10.714286

>  <N_hits>  (28) 
2

>  <submitter_name>  (28) 
nan

>  <original SMILES>  (28) 
nan

>  <∆G_unbound>  (28) 
1.962624

>  <∆G_bound>  (28) 
-6.399141

>  <regarded>  (28) 
mArh-x0465_0_A,mArh-x0681_0_A

>  <ref_pdb>  (28) 
nan

>  <smiles>  (28) 
C[C@@H](Oc1ccccc1F)C(O)=NCCN=C(N)C1CCCn2ccnc21

>  <submitter_email>  (28) 
nan

>  <disregarded>  (28) 


>  <LE>  (28) 
-0.309695

>  <submitter_institution>  (28) 
nan

>  <ref_mols>  (28) 
mArh-x0465_0_A,mArh-x0681_0_A

>  <N_constrained_atoms>  (28) 
25.0

>  <ref_url>  (28) 
nan

>  <method>  (28) 
nan

>  <comRMSD>  (28) 
0.312167

>  <N_unconstrained_atoms>  (28) 
2.0

>  <∆∆G>  (28) 
-8.361765

>  <runtime>  (28) 
40.151851

>  <generation_date>  (28) 
nan

$$$$
mArh-3ew5_C_0_C-mArh-x0685_0_A
     RDKit          3D

 25 25  0  0  0  0  0  0  0  0999 V2000
   -0.4680   19.6780   -7.8270 P   0  0  2  0  0  0  0  0  0  0  0  0
   -1.6870   20.5960   -8.3360 O   0  0  0  0  0  0  0  0  0  0  0  0
   -2.2020   21.5880   -7.4450 C   0  0  0  0  0  0  0  0  0  0  0  0
    0.7020   20.3350   -7.2270 O   0  0  0  0  0  0  0  0  0  0  0  0
    0.0240   18.8570   -9.0750 O   0  0  0  0  0  0  0  0  0  0  0  0
   -1.0990   18.3600   -7.1850 O   0  0  0  0  0  0  0  0  0  0  0  0
   -2.1370   18.4490   -6.2550 C   0  0  0  0  0  0  0  0  0  0  0  0
   -3.7020   21.8570   -7.6880 C   0  0  2  0  0  0  0  0  0  0  0  0
   -1.9660   17.2650   -5.3240 C   0  0  0  0  0  0  0  0  0  0  0  0
   -4.0150   23.1870   -8.3730 C   0  0  0  0  0  0  0  0  0  0  0  0
   -4.4340   21.8520   -6.4470 O   0  0  0  0  0  0  0  0  0  0  0  0
   -2.8940   16.0840   -5.6270 C   0  0  0  0  0  0  0  0  0  0  0  0
   -4.6500   22.9570   -9.6350 O   0  0  0  0  0  0  0  0  0  0  0  0
   -2.4840   14.8730   -4.7990 C   0  0  0  0  0  0  0  0  0  0  0  0
   -3.0630   14.9470   -3.4480 C   0  0  0  0  0  0  0  0  0  0  0  0
   -3.5350   14.9810   -2.3450 C   0  0  0  0  0  0  0  0  0  0  0  0
   -4.0980   15.0010   -1.0370 C   0  0  0  0  0  0  0  0  0  0  0  0
   -3.2910   15.0610    0.0890 C   0  0  0  0  0  0  0  0  0  0  0  0
   -5.4700   14.9600   -0.8510 C   0  0  0  0  0  0  0  0  0  0  0  0
   -3.8830   15.0870    1.3430 C   0  0  0  0  0  0  0  0  0  0  0  0
   -6.0660   14.9820    0.3610 N   0  0  0  0  0  0  0  0  0  0  0  0
   -5.2660   15.0520    1.4410 C   0  0  0  0  0  0  0  0  0  0  0  0
   -5.9110   15.1040    2.6700 N   0  0  0  0  0  0  0  0  0  0  0  0
   -7.2640   14.5950    2.8700 C   0  0  0  0  0  0  0  0  0  0  0  0
   -7.3320   13.0760    2.8620 C   0  0  0  0  0  0  0  0  0  0  0  0
  1  2  1  0
  2  3  1  0
  1  4  2  0
  1  5  1  6
  1  6  1  0
  6  7  1  0
  3  8  1  0
  7  9  1  0
  8 10  1  0
  8 11  1  1
  9 12  1  0
 10 13  1  0
 12 14  1  0
 14 15  1  0
 15 16  3  0
 16 17  1  0
 17 18  2  0
 17 19  1  0
 18 20  1  0
 19 21  2  0
 20 22  2  0
 21 22  1  0
 22 23  1  0
 23 24  1  0
 24 25  1  0
M  END
>  <%Rank>  (29) 
11.111111

>  <N_hits>  (29) 
2

>  <submitter_name>  (29) 
nan

>  <original SMILES>  (29) 
nan

>  <∆G_unbound>  (29) 
0.848825

>  <∆G_bound>  (29) 
-14.490752

>  <regarded>  (29) 
mArh-3ew5_C_0_C,mArh-x0685_0_A

>  <ref_pdb>  (29) 
nan

>  <smiles>  (29) 
CCNc1ccc(C#CCCCCOP(=O)(O)OC[C@@H](O)CO)cn1

>  <submitter_email>  (29) 
nan

>  <disregarded>  (29) 


>  <LE>  (29) 
-0.613583

>  <submitter_institution>  (29) 
nan

>  <ref_mols>  (29) 
mArh-3ew5_C_0_C,mArh-x0685_0_A

>  <N_constrained_atoms>  (29) 
21.0

>  <ref_url>  (29) 
nan

>  <method>  (29) 
nan

>  <comRMSD>  (29) 
0.347139

>  <N_unconstrained_atoms>  (29) 
4.0

>  <∆∆G>  (29) 
-15.339578

>  <runtime>  (29) 
54.55995

>  <generation_date>  (29) 
nan

$$$$
mArh-5cb5_R_0_R-mArh-5cb5_K_0_K
     RDKit          3D

 36 39  0  0  0  0  0  0  0  0999 V2000
   -1.3500   18.2040   -6.1630 P   0  0  1  0  0  0  0  0  0  0  0  0
    0.1130   17.5530   -6.3470 O   0  0  0  0  0  0  0  0  0  0  0  0
    0.7840   16.8520   -5.3030 C   0  0  0  0  0  0  0  0  0  0  0  0
   -2.4920   17.5170   -6.8390 O   0  0  0  0  0  0  0  0  0  0  0  0
   -1.5660   18.3370   -4.5880 O   0  0  0  0  0  0  0  0  0  0  0  0
   -1.1400   19.6930   -6.5900 O   0  0  0  0  0  0  0  0  0  0  0  0
   -0.3610   20.0370   -7.9230 P   0  0  1  0  0  0  0  0  0  0  0  0
    0.7940   20.9640   -7.8060 O   0  0  0  0  0  0  0  0  0  0  0  0
   -0.0280   18.6640   -8.6830 O   0  0  0  0  0  0  0  0  0  0  0  0
   -1.5670   20.4780   -8.8430 O   0  0  0  0  0  0  0  0  0  0  0  0
   -0.0830   15.7170   -4.7900 C   0  0  2  0  0  0  0  0  0  0  0  0
   -2.0510   21.7860   -8.8350 C   0  0  0  0  0  0  0  0  0  0  0  0
   -0.1700   15.6700   -3.3820 O   0  0  0  0  0  0  0  0  0  0  0  0
    0.1330   14.2330   -5.1440 C   0  0  1  0  0  0  0  0  0  0  0  0
    1.4180   13.7540   -4.7290 O   0  0  0  0  0  0  0  0  0  0  0  0
   -0.9390   13.5770   -4.2420 C   0  0  2  0  0  0  0  0  0  0  0  0
   -1.2960   14.8040   -3.3940 C   0  0  1  0  0  0  0  0  0  0  0  0
   -3.1020   22.0730   -7.8320 C   0  0  1  0  0  0  0  0  0  0  0  0
   -0.4460   12.4590   -3.5340 O   0  0  0  0  0  0  0  0  0  0  0  0
   -3.7470   23.4290   -8.0390 C   0  0  1  0  0  0  0  0  0  0  0  0
   -4.2460   21.2380   -7.9500 O   0  0  0  0  0  0  0  0  0  0  0  0
   -2.0280   14.8720   -2.1670 N   0  0  0  0  0  0  0  0  0  0  0  0
   -4.4450   23.5740   -9.2750 O   0  0  0  0  0  0  0  0  0  0  0  0
   -5.2200   21.8890   -7.1230 C   0  0  2  0  0  0  0  0  0  0  0  0
   -4.6590   23.2870   -6.8490 C   0  0  2  0  0  0  0  0  0  0  0  0
   -1.6310   14.8320   -0.8550 C   0  0  0  0  0  0  0  0  0  0  0  0
   -3.3830   15.0460   -2.1930 C   0  0  0  0  0  0  0  0  0  0  0  0
   -5.3520   21.2220   -5.8820 O   0  0  0  0  0  0  0  0  0  0  0  0
   -5.7140   24.2540   -6.8590 O   0  0  0  0  0  0  0  0  0  0  0  0
   -2.8210   15.0260   -0.1660 C   0  0  0  0  0  0  0  0  0  0  0  0
   -0.4080   14.6750   -0.3150 N   0  0  0  0  0  0  0  0  0  0  0  0
   -3.8990   15.1440   -1.0050 N   0  0  0  0  0  0  0  0  0  0  0  0
   -2.7530   15.0860    1.2090 C   0  0  0  0  0  0  0  0  0  0  0  0
   -0.4800   14.7290    1.0300 C   0  0  0  0  0  0  0  0  0  0  0  0
   -3.8850   15.3300    1.9520 N   0  0  0  0  0  0  0  0  0  0  0  0
   -1.5620   14.9190    1.8140 N   0  0  0  0  0  0  0  0  0  0  0  0
  1  2  1  0
  2  3  1  0
  1  4  2  0
  1  5  1  1
  1  6  1  0
  6  7  1  0
  7  8  2  0
  7  9  1  6
  7 10  1  0
 11  3  1  1
 10 12  1  0
 11 13  1  0
 11 14  1  0
 14 15  1  1
 14 16  1  0
 13 17  1  0
 16 17  1  0
 18 12  1  6
 16 19  1  1
 18 20  1  0
 18 21  1  0
 17 22  1  1
 20 23  1  6
 21 24  1  0
 20 25  1  0
 24 25  1  0
 22 26  1  0
 22 27  1  0
 24 28  1  1
 25 29  1  6
 26 30  2  0
 26 31  1  0
 27 32  2  0
 30 32  1  0
 30 33  1  0
 31 34  2  0
 33 35  1  0
 33 36  2  0
 34 36  1  0
M  END
>  <%Rank>  (30) 
11.507937

>  <N_hits>  (30) 
2

>  <submitter_name>  (30) 
nan

>  <original SMILES>  (30) 
nan

>  <∆G_unbound>  (30) 
4.299768

>  <∆G_bound>  (30) 
-15.673064

>  <regarded>  (30) 
mArh-5cb5_R_0_R,mArh-5cb5_K_0_K

>  <ref_pdb>  (30) 
nan

>  <smiles>  (30) 
Nc1ncnc2c1ncn2C1OC(CO[P@@](=O)(O)O[P@@](=O)(O)OCC2OC(O)C(O)C2O)C(O)C1O

>  <submitter_email>  (30) 
nan

>  <disregarded>  (30) 


>  <LE>  (30) 
-0.554801

>  <submitter_institution>  (30) 
nan

>  <ref_mols>  (30) 
mArh-5cb5_R_0_R,mArh-5cb5_K_0_K

>  <N_constrained_atoms>  (30) 
36.0

>  <ref_url>  (30) 
nan

>  <method>  (30) 
nan

>  <comRMSD>  (30) 
0.609456

>  <N_unconstrained_atoms>  (30) 
0.0

>  <∆∆G>  (30) 
-19.972832

>  <runtime>  (30) 
54.079707

>  <generation_date>  (30) 
nan

$$$$
mArh-5cms_P_15_P-mArh-5fud_A_0_A
     RDKit          3D

 43 47  0  0  0  0  0  0  0  0999 V2000
   -1.6960   18.0600   -6.1630 P   0  0  1  0  0  0  0  0  0  0  0  0
   -0.2740   17.3340   -6.3670 O   0  0  0  0  0  0  0  0  0  0  0  0
    0.4470   16.6760   -5.3350 C   0  0  0  0  0  0  0  0  0  0  0  0
   -2.8380   17.2850   -6.6910 O   0  0  0  0  0  0  0  0  0  0  0  0
   -1.7530   18.4030   -4.6100 O   0  0  0  0  0  0  0  0  0  0  0  0
   -1.4840   19.4500   -6.8690 O   0  0  0  0  0  0  0  0  0  0  0  0
   -0.1890   19.6880   -7.7240 P   0  0  1  0  0  0  0  0  0  0  0  0
    1.1130   19.6970   -7.0130 O   0  0  0  0  0  0  0  0  0  0  0  0
   -0.1840   18.4740   -8.7560 O   0  0  0  0  0  0  0  0  0  0  0  0
   -0.4210   20.9190   -8.7030 O   0  0  0  0  0  0  0  0  0  0  0  0
   -0.3730   15.5430   -4.7120 C   0  0  2  0  0  0  0  0  0  0  0  0
   -1.4880   21.8540   -8.6460 C   0  0  2  0  0  0  0  0  0  0  0  0
   -0.0360   15.4490   -3.3300 O   0  0  0  0  0  0  0  0  0  0  0  0
   -0.1810   14.0990   -5.1920 C   0  0  1  0  0  0  0  0  0  0  0  0
    1.2010   13.7230   -5.2520 O   0  0  0  0  0  0  0  0  0  0  0  0
   -2.6820   21.4160   -7.7600 C   0  0  0  0  0  0  0  0  0  0  0  0
   -0.8180   13.3610   -4.0160 C   0  0  1  0  0  0  0  0  0  0  0  0
   -0.5780   14.1870   -2.8790 C   0  0  2  0  0  0  0  0  0  0  0  0
   -1.7420   22.2860  -10.0860 C   0  0  2  0  0  0  0  0  0  0  0  0
   -2.1100   12.8470   -4.2840 O   0  0  0  0  0  0  0  0  0  0  0  0
   -1.2320   23.5380  -10.4150 C   0  0  1  0  0  0  0  0  0  0  0  0
   -3.1330   22.2760  -10.4410 O   0  0  0  0  0  0  0  0  0  0  0  0
   -1.6430   14.5110   -1.9500 N   0  0  0  0  0  0  0  0  0  0  0  0
   -3.9810   22.1160   -7.8470 N   0  0  0  0  0  0  0  0  0  0  0  0
    0.0270   23.4970  -11.1040 O   0  0  0  0  0  0  0  0  0  0  0  0
   -3.2470   23.1530  -11.5400 C   0  0  2  0  0  0  0  0  0  0  0  0
   -2.2820   24.1390  -11.3480 C   0  0  2  0  0  0  0  0  0  0  0  0
   -1.4410   14.5180   -0.6090 C   0  0  0  0  0  0  0  0  0  0  0  0
   -2.9540   14.8590   -2.1690 C   0  0  0  0  0  0  0  0  0  0  0  0
   -4.4730   22.5340   -9.1690 C   0  0  0  0  0  0  0  0  0  0  0  0
   -3.9830   23.3540   -7.0690 C   0  0  0  0  0  0  0  0  0  0  0  0
   -4.5410   23.7560  -11.4720 O   0  0  0  0  0  0  0  0  0  0  0  0
   -1.7380   24.7440  -12.5110 O   0  0  0  0  0  0  0  0  0  0  0  0
   -2.6540   14.8820   -0.0560 C   0  0  0  0  0  0  0  0  0  0  0  0
   -0.2900   14.2300    0.0110 N   0  0  0  0  0  0  0  0  0  0  0  0
   -3.5970   15.0920   -1.0360 N   0  0  0  0  0  0  0  0  0  0  0  0
   -5.9590   22.8690   -9.0550 C   0  0  0  0  0  0  0  0  0  0  0  0
   -5.4300   23.7450   -6.8880 C   0  0  0  0  0  0  0  0  0  0  0  0
   -2.6990   14.9710    1.3340 C   0  0  0  0  0  0  0  0  0  0  0  0
   -0.4600   14.3380    1.3430 C   0  0  0  0  0  0  0  0  0  0  0  0
   -6.1570   23.9400   -8.1180 O   0  0  0  0  0  0  0  0  0  0  0  0
   -3.8370   15.3450    2.0350 N   0  0  0  0  0  0  0  0  0  0  0  0
   -1.5730   14.6810    2.0170 N   0  0  0  0  0  0  0  0  0  0  0  0
  1  2  1  0
  2  3  1  0
  1  4  2  0
  1  5  1  1
  1  6  1  0
  6  7  1  0
  7  8  2  0
  7  9  1  6
  7 10  1  0
 11  3  1  6
 10 12  1  0
 11 13  1  0
 11 14  1  0
 14 15  1  1
 12 16  1  6
 14 17  1  0
 13 18  1  0
 17 18  1  0
 12 19  1  0
 17 20  1  6
 19 21  1  0
 19 22  1  1
 18 23  1  6
 16 24  1  0
 21 25  1  6
 22 26  1  0
 21 27  1  0
 26 27  1  0
 23 28  1  0
 23 29  1  0
 24 30  1  0
 24 31  1  0
 26 32  1  1
 27 33  1  6
 28 34  2  0
 28 35  1  0
 29 36  2  0
 34 36  1  0
 30 37  1  0
 31 38  1  0
 34 39  1  0
 35 40  2  0
 37 41  1  0
 38 41  1  0
 39 42  1  0
 39 43  2  0
 40 43  1  0
M  END
>  <%Rank>  (31) 
11.904762

>  <N_hits>  (31) 
2

>  <submitter_name>  (31) 
nan

>  <original SMILES>  (31) 
nan

>  <∆G_unbound>  (31) 
7.760359

>  <∆G_bound>  (31) 
-12.619145

>  <regarded>  (31) 
mArh-5cms_P_15_P,mArh-5fud_A_0_A

>  <ref_pdb>  (31) 
nan

>  <smiles>  (31) 
Nc1ncnc2c1ncn2C1OC(CO[P@@](=O)(O)O[P@@](=O)(O)OC(CN2CCOCC2)C2OC(O)C(O)C2O)C(O)C1O

>  <submitter_email>  (31) 
nan

>  <disregarded>  (31) 


>  <LE>  (31) 
-0.473942

>  <submitter_institution>  (31) 
nan

>  <ref_mols>  (31) 
mArh-5cms_P_15_P,mArh-5fud_A_0_A

>  <N_constrained_atoms>  (31) 
43.0

>  <ref_url>  (31) 
nan

>  <method>  (31) 
nan

>  <comRMSD>  (31) 
0.631519

>  <N_unconstrained_atoms>  (31) 
0.0

>  <∆∆G>  (31) 
-20.379504

>  <runtime>  (31) 
46.839246

>  <generation_date>  (31) 
nan

$$$$
mArh-mac-257_0_A-mArh-x0423_0_B
     RDKit          3D

 31 34  0  0  0  0  0  0  0  0999 V2000
   -0.7790   24.8610   15.1180 C   0  0  0  0  0  0  0  0  0  0  0  0
    0.2990   25.8930   15.2230 C   0  0  0  0  0  0  0  0  0  0  0  0
   -0.0700   27.2600   15.5730 C   0  0  0  0  0  0  0  0  0  0  0  0
    1.7320   25.6060   14.9940 C   0  0  0  0  0  0  0  0  0  0  0  0
    2.5770   26.6780   15.0520 C   0  0  1  0  0  0  0  0  0  0  0  0
    0.9320   28.3740   15.9460 C   0  0  0  0  0  0  0  0  0  0  0  0
    2.2590   27.9170   15.8670 C   0  0  0  0  0  0  0  0  0  0  0  0
    4.0400   26.6640   15.2280 C   0  0  0  0  0  0  0  0  0  0  0  0
    3.2950   28.5320   16.3870 N   0  0  0  0  0  0  0  0  0  0  0  0
    4.3920   27.7810   15.9650 C   0  0  0  0  0  0  0  0  0  0  0  0
    5.7960   28.2030   16.2710 C   0  0  0  0  0  0  0  0  0  0  0  0
    6.8490   27.9590   15.5510 N   0  0  0  0  0  0  0  0  0  0  0  0
    5.8390   28.9140   17.4170 O   0  0  0  0  0  0  0  0  0  0  0  0
    8.1520   28.4790   16.0070 C   0  0  0  0  0  0  0  0  0  0  0  0
    9.2800   27.4310   15.9150 C   0  0  0  0  0  0  0  0  0  0  0  0
   10.1620   27.5530   14.6540 C   0  0  0  0  0  0  0  0  0  0  0  0
   11.6020   27.9220   14.8730 C   0  0  0  0  0  0  0  0  0  0  0  0
   12.5170   26.8370   15.4750 C   0  0  0  0  0  0  0  0  0  0  0  0
   13.6790   26.4590   14.6620 N   0  0  0  0  0  0  0  0  0  0  0  0
   14.1890   25.1000   14.9400 C   0  0  1  0  0  0  0  0  0  0  0  0
   13.4870   24.0710   14.3250 C   0  0  0  0  0  0  0  0  0  0  0  0
   15.6770   25.0310   14.5260 C   0  0  0  0  0  0  0  0  0  0  0  0
   14.1160   23.0740   13.6820 N   0  0  0  0  0  0  0  0  0  0  0  0
   15.8980   24.6520   13.0550 C   0  0  0  0  0  0  0  0  0  0  0  0
   14.8470   23.6650   12.5510 C   0  0  0  0  0  0  0  0  0  0  0  0
   13.4680   21.8600   13.4590 C   0  0  0  0  0  0  0  0  0  0  0  0
   12.3960   21.4650   14.2350 C   0  0  0  0  0  0  0  0  0  0  0  0
   13.9010   21.0430   12.4710 N   0  0  0  0  0  0  0  0  0  0  0  0
   13.2990   19.8340   12.2270 N   0  0  0  0  0  0  0  0  0  0  0  0
   11.7830   20.2470   14.0010 C   0  0  0  0  0  0  0  0  0  0  0  0
   12.2610   19.4620   12.9900 C   0  0  0  0  0  0  0  0  0  0  0  0
  1  2  1  0
  2  3  1  0
  2  4  2  0
  5  4  1  1
  3  6  2  0
  5  7  1  0
  6  7  1  0
  5  8  1  0
  7  9  2  0
  8 10  2  0
  9 10  1  0
 10 11  1  0
 11 12  2  3
 11 13  1  0
 12 14  1  0
 14 15  1  0
 15 16  1  0
 16 17  1  0
 17 18  1  0
 18 19  1  0
 20 19  1  6
 20 21  1  0
 20 22  1  0
 21 23  1  0
 22 24  1  0
 23 25  1  0
 24 25  1  0
 23 26  1  0
 26 27  2  0
 26 28  1  0
 28 29  2  0
 27 30  1  0
 29 31  1  0
 30 31  2  0
M  END
>  <%Rank>  (32) 
12.301587

>  <N_hits>  (32) 
2

>  <submitter_name>  (32) 
nan

>  <original SMILES>  (32) 
nan

>  <∆G_unbound>  (32) 
0.166484

>  <∆G_bound>  (32) 
-11.200565

>  <regarded>  (32) 
mArh-mac-257_0_A,mArh-x0423_0_B

>  <ref_pdb>  (32) 
nan

>  <smiles>  (32) 
CC1=CC2C=C(C(O)=NCCCCCNC3CCCN(c4cccnn4)C3)N=C2C=C1

>  <submitter_email>  (32) 
nan

>  <disregarded>  (32) 


>  <LE>  (32) 
-0.366679

>  <submitter_institution>  (32) 
nan

>  <ref_mols>  (32) 
mArh-mac-257_0_A,mArh-x0423_0_B

>  <N_constrained_atoms>  (32) 
27.0

>  <ref_url>  (32) 
nan

>  <method>  (32) 
nan

>  <comRMSD>  (32) 
0.34388

>  <N_unconstrained_atoms>  (32) 
4.0

>  <∆∆G>  (32) 
-11.367049

>  <runtime>  (32) 
30.951026

>  <generation_date>  (32) 
nan

$$$$
mArh-3ew5_C_0_C-mArh-x0969_0_A
     RDKit          3D

 25 26  0  0  0  0  0  0  0  0999 V2000
   -0.5730   19.5970   -7.7840 P   0  0  2  0  0  0  0  0  0  0  0  0
   -1.6340   20.6640   -8.3360 O   0  0  0  0  0  0  0  0  0  0  0  0
   -2.2020   21.6110   -7.4200 C   0  0  0  0  0  0  0  0  0  0  0  0
    0.6080   20.2390   -7.1840 O   0  0  0  0  0  0  0  0  0  0  0  0
    0.0020   18.8670   -9.0540 O   0  0  0  0  0  0  0  0  0  0  0  0
   -1.2180   18.5240   -6.9820 O   0  0  0  0  0  0  0  0  0  0  0  0
   -0.4530   18.0220   -5.9010 C   0  0  0  0  0  0  0  0  0  0  0  0
   -3.7010   21.8630   -7.6820 C   0  0  2  0  0  0  0  0  0  0  0  0
   -1.3000   17.7180   -4.8380 C   0  0  0  0  0  0  0  0  0  0  0  0
   -4.0240   23.1980   -8.3510 C   0  0  0  0  0  0  0  0  0  0  0  0
   -4.4310   21.7800   -6.4440 O   0  0  0  0  0  0  0  0  0  0  0  0
   -0.8850   16.6960   -3.9790 C   0  0  0  0  0  0  0  0  0  0  0  0
   -4.6740   23.0100   -9.6030 O   0  0  0  0  0  0  0  0  0  0  0  0
   -2.0260   15.8560   -3.4150 C   0  0  0  0  0  0  0  0  0  0  0  0
   -1.8280   15.4920   -1.9490 C   0  0  0  0  0  0  0  0  0  0  0  0
   -3.1050   15.3130   -1.1650 C   0  0  0  0  0  0  0  0  0  0  0  0
   -4.3420   15.0690   -1.7240 C   0  0  0  0  0  0  0  0  0  0  0  0
   -3.0450   15.4020    0.3680 C   0  0  0  0  0  0  0  0  0  0  0  0
   -5.5130   14.8890   -0.7560 C   0  0  0  0  0  0  0  0  0  0  0  0
   -4.1010   15.2420    1.1600 C   0  0  0  0  0  0  0  0  0  0  0  0
   -6.7820   14.6380   -0.9920 N   0  0  0  0  0  0  0  0  0  0  0  0
   -5.3300   14.9780    0.6030 N   0  0  0  0  0  0  0  0  0  0  0  0
   -6.5120   14.7680    1.1530 C   0  0  0  0  0  0  0  0  0  0  0  0
   -7.4130   14.5600    0.2230 N   0  0  0  0  0  0  0  0  0  0  0  0
   -6.7310   14.7790    2.4880 N   0  0  0  0  0  0  0  0  0  0  0  0
  1  2  1  0
  2  3  1  0
  1  4  2  0
  1  5  1  6
  1  6  1  0
  6  7  1  0
  3  8  1  0
  7  9  1  0
  8 10  1  0
  8 11  1  1
  9 12  1  0
 10 13  1  0
 12 14  1  0
 14 15  1  0
 15 16  1  0
 16 17  2  0
 16 18  1  0
 17 19  1  0
 18 20  2  0
 19 21  2  0
 19 22  1  0
 20 22  1  0
 22 23  1  0
 21 24  1  0
 23 24  2  0
 23 25  1  0
M  END
>  <%Rank>  (33) 
12.698413

>  <N_hits>  (33) 
2

>  <submitter_name>  (33) 
nan

>  <original SMILES>  (33) 
nan

>  <∆G_unbound>  (33) 
2.152611

>  <∆G_bound>  (33) 
-15.024848

>  <regarded>  (33) 
mArh-3ew5_C_0_C,mArh-x0969_0_A

>  <ref_pdb>  (33) 
nan

>  <smiles>  (33) 
Nc1nnc2cc(CCCCCOP(=O)(O)OC[C@@H](O)CO)ccn12

>  <submitter_email>  (33) 
nan

>  <disregarded>  (33) 


>  <LE>  (33) 
-0.687098

>  <submitter_institution>  (33) 
nan

>  <ref_mols>  (33) 
mArh-3ew5_C_0_C,mArh-x0969_0_A

>  <N_constrained_atoms>  (33) 
20.0

>  <ref_url>  (33) 
nan

>  <method>  (33) 
nan

>  <comRMSD>  (33) 
0.348998

>  <N_unconstrained_atoms>  (33) 
5.0

>  <∆∆G>  (33) 
-17.177458

>  <runtime>  (33) 
25.354815

>  <generation_date>  (33) 
nan

$$$$
mArh-5cms_F_6_F-mArh-5cb5_N_0_N
     RDKit          3D

 43 48  0  0  0  0  0  0  0  0999 V2000
   -1.5710   18.1120   -6.2020 P   0  0  1  0  0  0  0  0  0  0  0  0
   -0.2980   17.1240   -6.1060 O   0  0  0  0  0  0  0  0  0  0  0  0
    0.4220   17.0070   -4.8800 C   0  0  0  0  0  0  0  0  0  0  0  0
   -2.7520   17.5670   -6.9080 O   0  0  0  0  0  0  0  0  0  0  0  0
   -1.8730   18.3100   -4.6470 O   0  0  0  0  0  0  0  0  0  0  0  0
   -1.1120   19.5820   -6.6060 O   0  0  0  0  0  0  0  0  0  0  0  0
   -0.3880   19.9920   -7.9640 P   0  0  1  0  0  0  0  0  0  0  0  0
    0.7910   20.8870   -7.8110 O   0  0  0  0  0  0  0  0  0  0  0  0
    0.0420   18.6020   -8.6460 O   0  0  0  0  0  0  0  0  0  0  0  0
   -1.4750   20.5360   -9.0280 O   0  0  0  0  0  0  0  0  0  0  0  0
    0.8880   15.5730   -4.4620 C   0  0  1  0  0  0  0  0  0  0  0  0
   -1.8970   21.9040   -9.0820 C   0  0  1  0  0  0  0  0  0  0  0  0
    0.4290   15.3300   -3.1260 O   0  0  0  0  0  0  0  0  0  0  0  0
    0.3500   14.3230   -5.2070 C   0  0  1  0  0  0  0  0  0  0  0  0
    1.3170   13.2860   -5.2790 O   0  0  0  0  0  0  0  0  0  0  0  0
   -0.8530   13.8320   -4.3890 C   0  0  2  0  0  0  0  0  0  0  0  0
   -0.9180   14.9520   -3.3760 C   0  0  1  0  0  0  0  0  0  0  0  0
   -1.5430   22.6090  -10.4250 C   0  0  1  0  0  0  0  0  0  0  0  0
   -3.4050   21.9880   -9.0220 C   0  0  2  0  0  0  0  0  0  0  0  0
   -0.6150   12.5160   -3.9030 O   0  0  0  0  0  0  0  0  0  0  0  0
   -2.6810   23.5430  -11.0390 C   0  0  1  0  0  0  0  0  0  0  0  0
   -0.2630   23.5050  -10.3150 C   0  0  1  0  0  0  0  0  0  0  0  0
   -1.7660   14.8760   -2.2010 N   0  0  0  0  0  0  0  0  0  0  0  0
   -3.6830   23.4420   -8.9040 C   0  0  1  0  0  0  0  0  0  0  0  0
   -4.1460   21.2870   -8.0180 O   0  0  0  0  0  0  0  0  0  0  0  0
   -3.8150   23.8950  -10.2220 O   0  0  0  0  0  0  0  0  0  0  0  0
    0.7240   23.3680  -11.3310 O   0  0  0  0  0  0  0  0  0  0  0  0
   -1.9670   24.8450  -11.4090 C   0  0  1  0  0  0  0  0  0  0  0  0
   -1.3320   14.8570   -0.8870 C   0  0  0  0  0  0  0  0  0  0  0  0
   -3.1460   14.8520   -2.1810 C   0  0  0  0  0  0  0  0  0  0  0  0
   -5.3630   22.0280   -7.7520 C   0  0  2  0  0  0  0  0  0  0  0  0
   -4.8610   23.4600   -7.9580 C   0  0  2  0  0  0  0  0  0  0  0  0
   -0.7530   24.9060  -10.4780 C   0  0  0  0  0  0  0  0  0  0  0  0
   -1.6570   25.0670  -12.7610 O   0  0  0  0  0  0  0  0  0  0  0  0
   -5.7300   21.7770   -6.3900 O   0  0  0  0  0  0  0  0  0  0  0  0
   -5.8980   24.2440   -8.5640 O   0  0  0  0  0  0  0  0  0  0  0  0
   -2.4990   14.8540   -0.1540 C   0  0  0  0  0  0  0  0  0  0  0  0
   -0.0800   14.8650   -0.3910 N   0  0  0  0  0  0  0  0  0  0  0  0
   -3.6010   14.8390   -0.9520 N   0  0  0  0  0  0  0  0  0  0  0  0
   -2.3850   14.8800    1.2130 C   0  0  0  0  0  0  0  0  0  0  0  0
   -0.1320   14.8790    0.9630 C   0  0  0  0  0  0  0  0  0  0  0  0
   -3.4740   14.9280    2.0130 N   0  0  0  0  0  0  0  0  0  0  0  0
   -1.1880   14.8760    1.7740 N   0  0  0  0  0  0  0  0  0  0  0  0
  1  2  1  0
  2  3  1  0
  1  4  2  0
  1  5  1  1
  1  6  1  0
  6  7  1  0
  7  8  2  0
  7  9  1  6
  7 10  1  0
 11  3  1  6
 12 10  1  6
 11 13  1  0
 11 14  1  0
 14 15  1  1
 14 16  1  0
 13 17  1  0
 16 17  1  0
 12 18  1  0
 12 19  1  0
 16 20  1  1
 18 21  1  0
 18 22  1  1
 17 23  1  1
 19 24  1  0
 19 25  1  1
 21 26  1  1
 24 26  1  6
 22 27  1  6
 21 28  1  0
 23 29  1  0
 23 30  1  0
 25 31  1  0
 24 32  1  0
 31 32  1  0
 22 33  1  0
 28 33  1  0
 28 34  1  6
 31 35  1  1
 32 36  1  6
 29 37  2  0
 29 38  1  0
 30 39  2  0
 37 39  1  0
 37 40  1  0
 38 41  2  0
 40 42  1  0
 40 43  2  0
 41 43  1  0
M  END
>  <%Rank>  (34) 
13.095238

>  <N_hits>  (34) 
2

>  <submitter_name>  (34) 
nan

>  <original SMILES>  (34) 
nan

>  <∆G_unbound>  (34) 
8.261572

>  <∆G_bound>  (34) 
-15.365966

>  <regarded>  (34) 
mArh-5cms_F_6_F,mArh-5cb5_N_0_N

>  <ref_pdb>  (34) 
nan

>  <smiles>  (34) 
Nc1ncnc2c1ncn2C1OC(CO[P@@](=O)(O)O[P@@](=O)(O)OC2C3OC(O)C(O)C3OC3C(O)CC(O)C32)C(O)C1O

>  <submitter_email>  (34) 
nan

>  <disregarded>  (34) 


>  <LE>  (34) 
-0.549478

>  <submitter_institution>  (34) 
nan

>  <ref_mols>  (34) 
mArh-5cms_F_6_F,mArh-5cb5_N_0_N

>  <N_constrained_atoms>  (34) 
40.0

>  <ref_url>  (34) 
nan

>  <method>  (34) 
nan

>  <comRMSD>  (34) 
0.62309

>  <N_unconstrained_atoms>  (34) 
3.0

>  <∆∆G>  (34) 
-23.627538

>  <runtime>  (34) 
31.79635

>  <generation_date>  (34) 
nan

$$$$
mArh-5cb5_F_1_F-mArh-x0465_0_A
     RDKit          3D

 51 55  0  0  0  0  0  0  0  0999 V2000
   -1.4660   18.2520   -6.0730 P   0  0  1  0  0  0  0  0  0  0  0  0
   -0.0090   17.5770   -6.2610 O   0  0  0  0  0  0  0  0  0  0  0  0
    0.7490   16.9040   -5.2650 C   0  0  0  0  0  0  0  0  0  0  0  0
   -2.6260   17.5080   -6.6590 O   0  0  0  0  0  0  0  0  0  0  0  0
   -1.6770   18.6460   -4.5420 O   0  0  0  0  0  0  0  0  0  0  0  0
   -1.1880   19.6330   -6.7300 O   0  0  0  0  0  0  0  0  0  0  0  0
   -0.3680   19.8120   -8.0470 P   0  0  2  0  0  0  0  0  0  0  0  0
   -1.3220   20.4890   -8.9210 O   0  0  0  0  0  0  0  0  0  0  0  0
    0.2190   18.6290   -8.7170 O   0  0  0  0  0  0  0  0  0  0  0  0
    0.7060   20.9560   -7.7450 O   0  0  0  0  0  0  0  0  0  0  0  0
   -0.1130   15.8120   -4.7060 C   0  0  2  0  0  0  0  0  0  0  0  0
   -2.0290   21.5810   -8.3990 C   0  0  0  0  0  0  0  0  0  0  0  0
   -0.1130   15.7040   -3.3010 O   0  0  0  0  0  0  0  0  0  0  0  0
   -0.1130   14.3630   -5.1880 C   0  0  1  0  0  0  0  0  0  0  0  0
    1.0170   13.6030   -4.7750 O   0  0  0  0  0  0  0  0  0  0  0  0
   -1.3570   13.9510   -4.3880 C   0  0  2  0  0  0  0  0  0  0  0  0
   -1.3880   15.0620   -3.3370 C   0  0  1  0  0  0  0  0  0  0  0  0
   -3.2950   21.8120   -9.1890 C   0  0  1  0  0  0  0  0  0  0  0  0
   -1.2540   12.6420   -3.8840 O   0  0  0  0  0  0  0  0  0  0  0  0
    0.4750   12.3250   -4.4180 C   0  0  1  0  0  0  0  0  0  0  0  0
   -4.3930   21.1220   -8.5810 O   0  0  0  0  0  0  0  0  0  0  0  0
   -3.7280   23.2370   -9.2280 C   0  0  1  0  0  0  0  0  0  0  0  0
   -2.0210   14.8960   -2.0690 N   0  0  0  0  0  0  0  0  0  0  0  0
   -4.6720   23.5460  -10.2430 O   0  0  0  0  0  0  0  0  0  0  0  0
    0.6250   11.3820   -5.4670 O   0  0  0  0  0  0  0  0  0  0  0  0
    1.0290   11.9360   -3.0530 C   0  0  0  0  0  0  0  0  0  0  0  0
   -1.4600   14.8820   -0.8210 C   0  0  0  0  0  0  0  0  0  0  0  0
   -4.2870   23.2780   -7.8610 C   0  0  2  0  0  0  0  0  0  0  0  0
   -5.1640   22.0410   -7.8280 C   0  0  2  0  0  0  0  0  0  0  0  0
   -3.3630   14.7530   -1.9360 C   0  0  0  0  0  0  0  0  0  0  0  0
   -5.0160   24.4560   -7.7110 O   0  0  0  0  0  0  0  0  0  0  0  0
   -5.3560   21.5430   -6.4930 O   0  0  0  0  0  0  0  0  0  0  0  0
    1.8010   12.5990   -2.3770 O   0  0  0  0  0  0  0  0  0  0  0  0
    0.5840   10.7470   -2.5820 O   0  0  0  0  0  0  0  0  0  0  0  0
   -2.5560   14.7510    0.0010 C   0  0  0  0  0  0  0  0  0  0  0  0
   -0.1770   14.9900   -0.4290 N   0  0  0  0  0  0  0  0  0  0  0  0
   -3.7300   14.6610   -0.6940 N   0  0  0  0  0  0  0  0  0  0  0  0
   -0.4780   10.6190   -5.7720 C   0  0  0  0  0  0  0  0  0  0  0  0
   -5.1760   24.4820   -6.4170 C   0  0  0  0  0  0  0  0  0  0  0  0
   -2.3310   14.7410    1.3510 C   0  0  0  0  0  0  0  0  0  0  0  0
   -0.1100   14.9620    0.9120 C   0  0  0  0  0  0  0  0  0  0  0  0
   -0.5610    9.6340   -6.7580 C   0  0  0  0  0  0  0  0  0  0  0  0
   -1.6200   10.8730   -5.0020 C   0  0  0  0  0  0  0  0  0  0  0  0
   -4.4920   25.6310   -5.7810 C   0  0  0  0  0  0  0  0  0  0  0  0
   -5.7690   23.6080   -5.8790 O   0  0  0  0  0  0  0  0  0  0  0  0
   -3.3390   14.6530    2.2430 N   0  0  0  0  0  0  0  0  0  0  0  0
    0.4850    9.3320   -7.5370 F   0  0  0  0  0  0  0  0  0  0  0  0
   -1.0950   14.8360    1.8080 N   0  0  0  0  0  0  0  0  0  0  0  0
   -1.7440    8.9260   -6.9650 C   0  0  0  0  0  0  0  0  0  0  0  0
   -2.8070   10.1720   -5.2040 C   0  0  0  0  0  0  0  0  0  0  0  0
   -2.8670    9.1940   -6.1900 C   0  0  0  0  0  0  0  0  0  0  0  0
  1  2  1  0
  2  3  1  0
  1  4  2  0
  1  5  1  1
  1  6  1  0
  6  7  1  0
  7  8  1  0
  7  9  2  0
  7 10  1  1
 11  3  1  6
  8 12  1  0
 11 13  1  0
 11 14  1  0
 14 15  1  1
 14 16  1  0
 13 17  1  0
 16 17  1  0
 18 12  1  1
 16 19  1  1
 20 15  1  6
 18 21  1  0
 18 22  1  0
 17 23  1  1
 22 24  1  6
 20 25  1  0
 20 26  1  0
 23 27  1  0
 22 28  1  0
 21 29  1  0
 28 29  1  0
 23 30  1  0
 28 31  1  6
 29 32  1  1
 26 33  2  0
 26 34  1  0
 27 35  2  0
 27 36  1  0
 30 37  2  0
 35 37  1  0
 25 38  1  0
 31 39  1  0
 35 40  1  0
 36 41  2  0
 38 42  2  0
 38 43  1  0
 39 44  1  0
 39 45  2  0
 40 46  1  0
 42 47  1  0
 40 48  2  0
 41 48  1  0
 42 49  1  0
 43 50  2  0
 49 51  2  0
 50 51  1  0
M  END
>  <%Rank>  (35) 
13.492063

>  <N_hits>  (35) 
2

>  <submitter_name>  (35) 
nan

>  <original SMILES>  (35) 
nan

>  <∆G_unbound>  (35) 
12.355971

>  <∆G_bound>  (35) 
-4.010784

>  <regarded>  (35) 
mArh-5cb5_F_1_F,mArh-x0465_0_A

>  <ref_pdb>  (35) 
nan

>  <smiles>  (35) 
CC(=O)OC1C(O)OC(CO[P@@](=O)(O)O[P@](=O)(O)OCC2OC(n3cnc4c(N)ncnc43)C(O)C2O[C@@H](Oc2ccccc2F)C(=O)O)C1O

>  <submitter_email>  (35) 
nan

>  <disregarded>  (35) 


>  <LE>  (35) 
-0.320917

>  <submitter_institution>  (35) 
nan

>  <ref_mols>  (35) 
mArh-5cb5_F_1_F,mArh-x0465_0_A

>  <N_constrained_atoms>  (35) 
51.0

>  <ref_url>  (35) 
nan

>  <method>  (35) 
nan

>  <comRMSD>  (35) 
0.624119

>  <N_unconstrained_atoms>  (35) 
0.0

>  <∆∆G>  (35) 
-16.366755

>  <runtime>  (35) 
43.130266

>  <generation_date>  (35) 
nan

$$$$
mArh-x0216_0_A-mArh-x0423_0_B
     RDKit          3D

 34 36  0  0  0  0  0  0  0  0999 V2000
   17.6750   28.7110    6.0960 N   0  0  0  0  0  0  0  0  0  0  0  0
   17.0510   29.9940    6.4470 C   0  0  0  0  0  0  0  0  0  0  0  0
   15.7310   29.7260    7.1530 C   0  0  0  0  0  0  0  0  0  0  0  0
   18.8600   28.1690    6.5300 C   0  0  0  0  0  0  0  0  0  0  0  0
   18.9680   27.7980    7.7630 N   0  0  0  0  0  0  0  0  0  0  0  0
   19.8480   28.0260    5.5860 N   0  0  0  0  0  0  0  0  0  0  0  0
   17.9710   30.8570    7.3020 C   0  0  0  0  0  0  0  0  0  0  0  0
   19.3750   27.9340    4.1940 C   0  0  0  0  0  0  0  0  0  0  0  0
   17.8740   27.9140    8.7160 C   0  0  0  0  0  0  0  0  0  0  0  0
   20.9660   27.1300    5.9690 C   0  0  2  0  0  0  0  0  0  0  0  0
   18.0580   26.8480    9.8170 C   0  0  0  0  0  0  0  0  0  0  0  0
   22.3280   27.8510    5.9500 C   0  0  0  0  0  0  0  0  0  0  0  0
   21.0960   25.8830    5.0590 C   0  0  0  0  0  0  0  0  0  0  0  0
   17.6050   25.4480    9.3700 C   0  0  0  0  0  0  0  0  0  0  0  0
   22.8180   27.8140    4.5170 C   0  0  0  0  0  0  0  0  0  0  0  0
   22.5430   26.1280    4.0440 S   0  0  0  0  0  0  0  0  0  0  0  0
   22.1930   26.0900    2.6420 O   0  0  0  0  0  0  0  0  0  0  0  0
   23.6330   25.3370    4.5850 O   0  0  0  0  0  0  0  0  0  0  0  0
   17.0560   24.5120   10.4740 C   0  0  0  0  0  0  0  0  0  0  0  0
   16.9510   25.0960   11.9040 C   0  0  0  0  0  0  0  0  0  0  0  0
   16.1270   24.2760   12.9440 C   0  0  2  0  0  0  0  0  0  0  0  0
   14.7810   23.7010   12.4620 C   0  0  0  0  0  0  0  0  0  0  0  0
   15.9730   24.9690   14.3310 C   0  0  0  0  0  0  0  0  0  0  0  0
   14.5200   25.1670   14.8820 C   0  0  1  0  0  0  0  0  0  0  0  0
   14.1640   23.0550   13.6010 N   0  0  0  0  0  0  0  0  0  0  0  0
   14.0640   26.5130   14.4840 N   0  0  0  0  0  0  0  0  0  0  0  0
   13.5270   24.0340   14.4780 C   0  0  0  0  0  0  0  0  0  0  0  0
   13.5140   21.8400   13.4020 C   0  0  0  0  0  0  0  0  0  0  0  0
   12.9690   26.9910   15.3240 C   0  0  0  0  0  0  0  0  0  0  0  0
   12.4270   21.4760   14.1910 C   0  0  0  0  0  0  0  0  0  0  0  0
   13.9340   20.9880   12.4440 N   0  0  0  0  0  0  0  0  0  0  0  0
   13.3190   19.7810   12.2340 N   0  0  0  0  0  0  0  0  0  0  0  0
   11.8030   20.2610   13.9890 C   0  0  0  0  0  0  0  0  0  0  0  0
   12.2720   19.4410   13.0060 C   0  0  0  0  0  0  0  0  0  0  0  0
  1  2  1  0
  2  3  1  0
  1  4  1  0
  4  5  2  3
  4  6  1  0
  2  7  1  0
  6  8  1  0
  5  9  1  0
 10  6  1  6
  9 11  1  0
 10 12  1  0
 10 13  1  0
 11 14  1  0
 12 15  1  0
 16 13  1  0
 15 16  1  0
 16 17  2  0
 16 18  2  0
 14 19  1  0
 19 20  1  0
 21 20  1  6
 21 22  1  0
 21 23  1  0
 23 24  1  0
 22 25  1  0
 24 26  1  6
 24 27  1  0
 25 27  1  0
 25 28  1  0
 26 29  1  0
 28 30  2  0
 28 31  1  0
 31 32  2  0
 30 33  1  0
 32 34  1  0
 33 34  2  0
M  END
>  <%Rank>  (36) 
13.888889

>  <N_hits>  (36) 
2

>  <submitter_name>  (36) 
nan

>  <original SMILES>  (36) 
nan

>  <∆G_unbound>  (36) 
0.865052

>  <∆G_bound>  (36) 
-9.007149

>  <regarded>  (36) 
mArh-x0216_0_A,mArh-x0423_0_B

>  <ref_pdb>  (36) 
nan

>  <smiles>  (36) 
CNC1CC(CCCCCN=C(NC(C)C)N(C)C2CCS(=O)(=O)C2)CN(c2cccnn2)C1

>  <submitter_email>  (36) 
nan

>  <disregarded>  (36) 


>  <LE>  (36) 
-0.290359

>  <submitter_institution>  (36) 
nan

>  <ref_mols>  (36) 
mArh-x0216_0_A,mArh-x0423_0_B

>  <N_constrained_atoms>  (36) 
29.0

>  <ref_url>  (36) 
nan

>  <method>  (36) 
nan

>  <comRMSD>  (36) 
0.333997

>  <N_unconstrained_atoms>  (36) 
5.0

>  <∆∆G>  (36) 
-9.872201

>  <runtime>  (36) 
39.824324

>  <generation_date>  (36) 
nan

$$$$
mArh-6woj_C_0_C-mArh-6mea_B_0_B
     RDKit          3D

 36 39  0  0  0  0  0  0  0  0999 V2000
   -1.1520   18.3180   -5.8840 P   0  0  2  0  0  0  0  0  0  0  0  0
    0.1260   17.4420   -6.2870 O   0  0  0  0  0  0  0  0  0  0  0  0
    0.9940   16.8380   -5.3240 C   0  0  0  0  0  0  0  0  0  0  0  0
   -1.4840   18.3970   -4.4450 O   0  0  0  0  0  0  0  0  0  0  0  0
   -2.3750   17.6550   -6.6880 O   0  0  0  0  0  0  0  0  0  0  0  0
   -0.9750   19.7180   -6.5630 O   0  0  0  0  0  0  0  0  0  0  0  0
   -0.0520   20.1330   -7.7640 P   0  0  1  0  0  0  0  0  0  0  0  0
    1.2960   20.6600   -7.3950 O   0  0  0  0  0  0  0  0  0  0  0  0
    0.0340   18.8330   -8.7210 O   0  0  0  0  0  0  0  0  0  0  0  0
   -0.8440   21.2460   -8.5790 O   0  0  0  0  0  0  0  0  0  0  0  0
    0.2490   15.6410   -4.7760 C   0  0  2  0  0  0  0  0  0  0  0  0
   -2.2290   21.2230   -8.4720 C   0  0  0  0  0  0  0  0  0  0  0  0
    0.2100   15.5280   -3.3630 O   0  0  0  0  0  0  0  0  0  0  0  0
    0.5250   14.1840   -5.1740 C   0  0  1  0  0  0  0  0  0  0  0  0
    1.7940   13.6470   -4.8330 O   0  0  0  0  0  0  0  0  0  0  0  0
   -0.6290   13.5310   -4.3840 C   0  0  2  0  0  0  0  0  0  0  0  0
   -0.9500   14.7190   -3.4530 C   0  0  1  0  0  0  0  0  0  0  0  0
   -2.8050   22.0790   -7.3910 C   0  0  1  0  0  0  0  0  0  0  0  0
   -0.1530   12.3180   -3.8070 O   0  0  0  0  0  0  0  0  0  0  0  0
   -3.4190   23.4710   -7.6500 C   0  0  1  0  0  0  0  0  0  0  0  0
   -3.8650   21.2370   -6.8960 O   0  0  0  0  0  0  0  0  0  0  0  0
   -1.7790   14.7520   -2.2840 N   0  0  0  0  0  0  0  0  0  0  0  0
   -4.1860   23.6370   -8.8710 O   0  0  0  0  0  0  0  0  0  0  0  0
   -4.9860   22.0550   -6.6810 C   0  0  2  0  0  0  0  0  0  0  0  0
   -4.4040   23.4490   -6.4930 C   0  0  2  0  0  0  0  0  0  0  0  0
   -1.4680   14.6260   -0.9490 C   0  0  0  0  0  0  0  0  0  0  0  0
   -3.1210   14.9730   -2.3850 C   0  0  0  0  0  0  0  0  0  0  0  0
   -5.6470   21.5980   -5.5170 O   0  0  0  0  0  0  0  0  0  0  0  0
   -5.4190   24.4380   -6.5210 O   0  0  0  0  0  0  0  0  0  0  0  0
   -2.6940   14.8120   -0.3210 C   0  0  0  0  0  0  0  0  0  0  0  0
   -0.2830   14.3970   -0.3530 N   0  0  0  0  0  0  0  0  0  0  0  0
   -3.7070   15.0160   -1.2260 N   0  0  0  0  0  0  0  0  0  0  0  0
   -2.7450   14.7820    1.0630 C   0  0  0  0  0  0  0  0  0  0  0  0
   -0.4800   14.3730    1.1100 C   0  0  0  0  0  0  0  0  0  0  0  0
   -3.9310   14.9960    1.7130 N   0  0  0  0  0  0  0  0  0  0  0  0
   -1.6280   14.5530    1.7820 N   0  0  0  0  0  0  0  0  0  0  0  0
  1  2  1  0
  2  3  1  0
  1  4  2  0
  1  5  1  6
  1  6  1  0
  6  7  1  0
  7  8  2  0
  7  9  1  6
  7 10  1  0
 11  3  1  1
 10 12  1  0
 11 13  1  0
 11 14  1  0
 14 15  1  1
 14 16  1  0
 13 17  1  0
 16 17  1  0
 18 12  1  6
 16 19  1  1
 18 20  1  0
 18 21  1  0
 17 22  1  1
 20 23  1  6
 21 24  1  0
 20 25  1  0
 24 25  1  0
 22 26  1  0
 22 27  1  0
 24 28  1  1
 25 29  1  6
 26 30  2  0
 26 31  1  0
 27 32  2  0
 30 32  1  0
 30 33  1  0
 31 34  2  0
 33 35  1  0
 33 36  2  0
 34 36  1  0
M  END
>  <%Rank>  (37) 
14.285714

>  <N_hits>  (37) 
2

>  <submitter_name>  (37) 
nan

>  <original SMILES>  (37) 
nan

>  <∆G_unbound>  (37) 
4.033159

>  <∆G_bound>  (37) 
-17.852576

>  <regarded>  (37) 
mArh-6woj_C_0_C,mArh-6mea_B_0_B

>  <ref_pdb>  (37) 
nan

>  <smiles>  (37) 
Nc1ncnc2c1ncn2C1OC(CO[P@](=O)(O)O[P@@](=O)(O)OCC2OC(O)C(O)C2O)C(O)C1O

>  <submitter_email>  (37) 
nan

>  <disregarded>  (37) 


>  <LE>  (37) 
-0.607937

>  <submitter_institution>  (37) 
nan

>  <ref_mols>  (37) 
mArh-6woj_C_0_C,mArh-6mea_B_0_B

>  <N_constrained_atoms>  (37) 
36.0

>  <ref_url>  (37) 
nan

>  <method>  (37) 
nan

>  <comRMSD>  (37) 
0.655999

>  <N_unconstrained_atoms>  (37) 
0.0

>  <∆∆G>  (37) 
-21.885735

>  <runtime>  (37) 
42.693206

>  <generation_date>  (37) 
nan

$$$$
mArh-1vhu_0_A-mArh-5cb5_H_0_H
     RDKit          3D

 36 39  0  0  0  0  0  0  0  0999 V2000
    0.2190   18.7710   -8.5440 O   0  0  0  0  0  0  0  0  0  0  0  0
    0.0340   20.0010   -7.7660 S   0  0  1  0  0  0  0  0  0  0  0  0
   -0.5420   19.6520   -6.2630 N   0  0  0  0  0  0  0  0  0  0  0  0
    1.1540   20.9230   -7.5550 O   0  0  0  0  0  0  0  0  0  0  0  0
   -1.5340   20.7590   -8.2580 C   0  0  1  0  0  0  0  0  0  0  0  0
   -1.8430   22.1550   -7.7300 C   0  0  0  0  0  0  0  0  0  0  0  0
   -1.3570   18.2180   -6.1330 P   0  0  2  0  0  0  0  0  0  0  0  0
   -1.8530   20.6710   -9.6060 O   0  0  0  0  0  0  0  0  0  0  0  0
   -0.1220   17.2360   -6.3610 O   0  0  0  0  0  0  0  0  0  0  0  0
   -2.4810   17.9930   -7.0920 O   0  0  0  0  0  0  0  0  0  0  0  0
   -1.8050   17.9480   -4.6330 O   0  0  0  0  0  0  0  0  0  0  0  0
   -3.2820   22.5140   -7.8080 N   0  0  0  0  0  0  0  0  0  0  0  0
    0.6150   16.7240   -5.2590 C   0  0  0  0  0  0  0  0  0  0  0  0
   -3.7500   22.8530   -9.1610 C   0  0  0  0  0  0  0  0  0  0  0  0
   -3.6760   23.6150   -6.9170 C   0  0  0  0  0  0  0  0  0  0  0  0
   -5.2650   23.0840   -9.1940 C   0  0  0  0  0  0  0  0  0  0  0  0
   -5.1940   23.7340   -6.9470 C   0  0  2  0  0  0  0  0  0  0  0  0
   -0.2410   15.6090   -4.7200 C   0  0  2  0  0  0  0  0  0  0  0  0
   -5.7310   22.4450   -6.6240 O   0  0  0  0  0  0  0  0  0  0  0  0
   -5.6510   24.0880   -8.2550 O   0  0  0  0  0  0  0  0  0  0  0  0
   -0.2620   15.5530   -3.3060 O   0  0  0  0  0  0  0  0  0  0  0  0
   -0.1080   14.1340   -5.1440 C   0  0  1  0  0  0  0  0  0  0  0  0
    1.1770   13.5530   -4.9840 O   0  0  0  0  0  0  0  0  0  0  0  0
   -1.0750   13.4960   -4.1370 C   0  0  2  0  0  0  0  0  0  0  0  0
   -1.4160   14.7320   -3.2930 C   0  0  1  0  0  0  0  0  0  0  0  0
   -0.3540   12.4990   -3.4030 O   0  0  0  0  0  0  0  0  0  0  0  0
   -2.1130   14.8580   -2.0540 N   0  0  0  0  0  0  0  0  0  0  0  0
   -1.7140   14.8050   -0.7540 C   0  0  0  0  0  0  0  0  0  0  0  0
   -3.4630   15.1140   -2.0710 C   0  0  0  0  0  0  0  0  0  0  0  0
   -2.8850   15.0590   -0.0560 C   0  0  0  0  0  0  0  0  0  0  0  0
   -0.5000   14.5840   -0.2300 N   0  0  0  0  0  0  0  0  0  0  0  0
   -3.9600   15.2410   -0.8810 N   0  0  0  0  0  0  0  0  0  0  0  0
   -2.8020   15.1010    1.3150 C   0  0  0  0  0  0  0  0  0  0  0  0
   -0.5420   14.6310    1.1140 C   0  0  0  0  0  0  0  0  0  0  0  0
   -3.9170   15.3880    2.0640 N   0  0  0  0  0  0  0  0  0  0  0  0
   -1.6040   14.8660    1.9000 N   0  0  0  0  0  0  0  0  0  0  0  0
  1  2  2  0
  2  3  2  0
  2  4  1  1
  2  5  1  0
  5  6  1  0
  3  7  1  0
  5  8  1  6
  7  9  1  0
  7 10  2  0
  7 11  1  1
  6 12  1  0
  9 13  1  0
 12 14  1  0
 12 15  1  0
 14 16  1  0
 15 17  1  0
 18 13  1  1
 17 19  1  6
 16 20  1  0
 17 20  1  0
 18 21  1  0
 18 22  1  0
 22 23  1  1
 22 24  1  0
 21 25  1  0
 24 25  1  0
 24 26  1  1
 25 27  1  1
 27 28  1  0
 27 29  1  0
 28 30  2  0
 28 31  1  0
 29 32  2  0
 30 32  1  0
 30 33  1  0
 31 34  2  0
 33 35  1  0
 33 36  2  0
 34 36  1  0
M  CHG  1   4  -1
M  END
>  <%Rank>  (38) 
14.68254

>  <N_hits>  (38) 
2

>  <submitter_name>  (38) 
nan

>  <original SMILES>  (38) 
nan

>  <∆G_unbound>  (38) 
7.160153

>  <∆G_bound>  (38) 
-16.618246

>  <regarded>  (38) 
mArh-1vhu_0_A,mArh-5cb5_H_0_H

>  <ref_pdb>  (38) 
nan

>  <smiles>  (38) 
Nc1ncnc2c1ncn2C1OC(CO[P@@](=O)(O)N=S(=O)([O-])C(O)CN2CCOC(O)C2)C(O)C1O

>  <submitter_email>  (38) 
nan

>  <disregarded>  (38) 


>  <LE>  (38) 
-0.660511

>  <submitter_institution>  (38) 
nan

>  <ref_mols>  (38) 
mArh-1vhu_0_A,mArh-5cb5_H_0_H

>  <N_constrained_atoms>  (38) 
36.0

>  <ref_url>  (38) 
nan

>  <method>  (38) 
nan

>  <comRMSD>  (38) 
0.684172

>  <N_unconstrained_atoms>  (38) 
0.0

>  <∆∆G>  (38) 
-23.778399

>  <runtime>  (38) 
38.625367

>  <generation_date>  (38) 
nan

$$$$
mArh-x0628_0_A-mArh-x0905_0_A
     RDKit          3D

 21 22  0  0  0  0  0  0  0  0999 V2000
   -1.0670    9.1610   -7.2190 C   0  0  0  0  0  0  0  0  0  0  0  0
   -0.9930   10.3430   -6.3370 C   0  0  0  0  0  0  0  0  0  0  0  0
   -1.9290   10.6290   -5.3760 N   0  0  0  0  0  0  0  0  0  0  0  0
    0.0060   11.2190   -6.4180 N   0  0  0  0  0  0  0  0  0  0  0  0
   -0.3130   12.1020   -5.4530 N   0  0  0  0  0  0  0  0  0  0  0  0
   -1.4870   11.7470   -4.8160 C   0  0  0  0  0  0  0  0  0  0  0  0
   -2.1500   12.4870   -3.6780 C   0  0  0  0  0  0  0  0  0  0  0  0
    0.5580   13.2320   -5.2180 C   0  0  0  0  0  0  0  0  0  0  0  0
    1.6570   12.9940   -4.1840 C   0  0  0  0  0  0  0  0  0  0  0  0
   -2.8840   13.8140   -3.9750 C   0  0  0  0  0  0  0  0  0  0  0  0
    1.1470   12.3200   -2.9400 C   0  0  0  0  0  0  0  0  0  0  0  0
   -2.6790   14.9730   -2.9520 C   0  0  0  0  0  0  0  0  0  0  0  0
    0.7280   11.1820   -2.8370 O   0  0  0  0  0  0  0  0  0  0  0  0
    1.1820   13.1280   -1.8680 O   0  0  0  0  0  0  0  0  0  0  0  0
   -3.5730   14.9970   -1.7160 C   0  0  0  0  0  0  0  0  0  0  0  0
   -3.0370   14.9410   -0.4140 C   0  0  0  0  0  0  0  0  0  0  0  0
   -4.9600   15.0770   -1.8340 C   0  0  0  0  0  0  0  0  0  0  0  0
   -3.9010   14.9590    0.6770 C   0  0  0  0  0  0  0  0  0  0  0  0
   -5.7170   15.0850   -0.6800 C   0  0  0  0  0  0  0  0  0  0  0  0
   -7.0730   15.1570   -0.7600 O   0  0  0  0  0  0  0  0  0  0  0  0
   -5.2440   15.0240    0.5720 N   0  0  0  0  0  0  0  0  0  0  0  0
  1  2  1  0
  2  3  1  0
  2  4  2  0
  4  5  1  0
  3  6  2  0
  5  6  1  0
  6  7  1  0
  5  8  1  0
  8  9  1  0
  7 10  1  0
  9 11  1  0
 10 12  1  0
 11 13  2  0
 11 14  1  0
 12 15  1  0
 15 16  2  0
 15 17  1  0
 16 18  1  0
 17 19  2  0
 19 20  1  0
 18 21  2  0
 19 21  1  0
M  END
>  <%Rank>  (39) 
15.079365

>  <N_hits>  (39) 
2

>  <submitter_name>  (39) 
nan

>  <original SMILES>  (39) 
nan

>  <∆G_unbound>  (39) 
4.557846

>  <∆G_bound>  (39) 
-3.027361

>  <regarded>  (39) 
mArh-x0628_0_A,mArh-x0905_0_A

>  <ref_pdb>  (39) 
nan

>  <smiles>  (39) 
Cc1nc(CCCc2ccnc(O)c2)n(CCC(=O)O)n1

>  <submitter_email>  (39) 
nan

>  <disregarded>  (39) 


>  <LE>  (39) 
-0.3612

>  <submitter_institution>  (39) 
nan

>  <ref_mols>  (39) 
mArh-x0628_0_A,mArh-x0905_0_A

>  <N_constrained_atoms>  (39) 
19.0

>  <ref_url>  (39) 
nan

>  <method>  (39) 
nan

>  <comRMSD>  (39) 
0.249478

>  <N_unconstrained_atoms>  (39) 
2.0

>  <∆∆G>  (39) 
-7.585207

>  <runtime>  (39) 
26.026683

>  <generation_date>  (39) 
nan

$$$$
mArh-x0855_0_A-mArh-5cb5_K_0_K
     RDKit          3D

 44 48  0  0  0  0  0  0  0  0999 V2000
    2.1490   13.1150   -3.4210 O   0  0  0  0  0  0  0  0  0  0  0  0
    1.0950   12.2950   -3.4920 C   0  0  0  0  0  0  0  0  0  0  0  0
   -0.0870   12.7960   -4.2830 C   0  0  2  0  0  0  0  0  0  0  0  0
    1.1080   11.2300   -2.9060 O   0  0  0  0  0  0  0  0  0  0  0  0
   -0.7370   11.7290   -5.0160 N   0  0  0  0  0  0  0  0  0  0  0  0
   -0.1180   14.1760   -4.9970 C   0  0  2  0  0  0  0  0  0  0  0  0
   -0.2830   10.8940   -6.0120 C   0  0  0  0  0  0  0  0  0  0  0  0
   -2.0210   11.5190   -4.6470 N   0  0  0  0  0  0  0  0  0  0  0  0
    0.6610   15.3770   -4.3810 C   0  0  1  0  0  0  0  0  0  0  0  0
   -1.4870   14.6150   -4.5390 C   0  0  0  0  0  0  0  0  0  0  0  0
    0.5770   16.6850   -5.2000 C   0  0  0  0  0  0  0  0  0  0  0  0
   -1.3450   10.0780   -6.3050 C   0  0  0  0  0  0  0  0  0  0  0  0
   -2.4340   10.5210   -5.4060 C   0  0  0  0  0  0  0  0  0  0  0  0
   -0.0260   15.6150   -3.1260 O   0  0  0  0  0  0  0  0  0  0  0  0
   -1.0660   14.6250   -3.0890 C   0  0  1  0  0  0  0  0  0  0  0  0
   -1.4820    8.6940   -7.5390 Br  0  0  0  0  0  0  0  0  0  0  0  0
   -0.7180   16.7810   -5.7770 O   0  0  0  0  0  0  0  0  0  0  0  0
   -2.0370   14.8510   -2.0610 N   0  0  0  0  0  0  0  0  0  0  0  0
   -1.3810   18.1950   -6.1000 P   0  0  1  0  0  0  0  0  0  0  0  0
   -1.6870   14.8150   -0.7490 C   0  0  0  0  0  0  0  0  0  0  0  0
   -3.3740   15.1230   -2.1440 C   0  0  0  0  0  0  0  0  0  0  0  0
   -2.5770   18.1350   -7.0550 O   0  0  0  0  0  0  0  0  0  0  0  0
   -1.7790   18.7570   -4.6600 O   0  0  0  0  0  0  0  0  0  0  0  0
   -0.2180   19.1650   -6.4870 O   0  0  0  0  0  0  0  0  0  0  0  0
   -2.8530   15.0880   -0.0730 C   0  0  0  0  0  0  0  0  0  0  0  0
   -0.4670   14.5780   -0.2400 N   0  0  0  0  0  0  0  0  0  0  0  0
   -3.9050   15.2740   -0.9490 N   0  0  0  0  0  0  0  0  0  0  0  0
   -0.1830   19.9520   -7.8410 P   0  0  1  0  0  0  0  0  0  0  0  0
   -2.7600   15.1340    1.3110 C   0  0  0  0  0  0  0  0  0  0  0  0
   -0.5080   14.6310    1.0980 C   0  0  0  0  0  0  0  0  0  0  0  0
    0.9180   21.1120   -7.9010 O   0  0  0  0  0  0  0  0  0  0  0  0
    0.1010   18.7660   -8.8830 O   0  0  0  0  0  0  0  0  0  0  0  0
   -1.6740   20.3780   -8.2140 O   0  0  0  0  0  0  0  0  0  0  0  0
   -3.8450   15.4350    2.1040 N   0  0  0  0  0  0  0  0  0  0  0  0
   -1.5630   14.8860    1.8890 N   0  0  0  0  0  0  0  0  0  0  0  0
   -1.9900   21.7520   -8.0210 C   0  0  0  0  0  0  0  0  0  0  0  0
   -3.3090   22.1280   -8.6940 C   0  0  2  0  0  0  0  0  0  0  0  0
   -3.7610   23.5370   -8.3780 C   0  0  1  0  0  0  0  0  0  0  0  0
   -4.3630   21.2950   -8.2480 O   0  0  0  0  0  0  0  0  0  0  0  0
   -4.5360   24.0920   -9.4170 O   0  0  0  0  0  0  0  0  0  0  0  0
   -5.1670   21.9750   -7.2870 C   0  0  2  0  0  0  0  0  0  0  0  0
   -4.5550   23.3440   -7.0890 C   0  0  2  0  0  0  0  0  0  0  0  0
   -5.1860   21.2710   -6.0540 O   0  0  0  0  0  0  0  0  0  0  0  0
   -5.5620   24.3340   -6.8850 O   0  0  0  0  0  0  0  0  0  0  0  0
  1  2  1  0
  3  2  1  6
  2  4  2  0
  3  5  1  0
  3  6  1  0
  5  7  1  0
  5  8  1  0
  6  9  1  0
  6 10  1  1
  9 11  1  6
  7 12  2  0
  8 13  2  0
 12 13  1  0
  9 14  1  0
 10 15  1  0
 14 15  1  0
 12 16  1  0
 11 17  1  0
 15 18  1  1
 17 19  1  0
 18 20  1  0
 18 21  1  0
 19 22  2  0
 19 23  1  1
 19 24  1  0
 20 25  2  0
 20 26  1  0
 21 27  2  0
 25 27  1  0
 24 28  1  0
 25 29  1  0
 26 30  2  0
 28 31  2  0
 28 32  1  6
 28 33  1  0
 29 34  1  0
 29 35  2  0
 30 35  1  0
 33 36  1  0
 37 36  1  1
 37 38  1  0
 37 39  1  0
 38 40  1  6
 39 41  1  0
 38 42  1  0
 41 42  1  0
 41 43  1  1
 42 44  1  6
M  END
>  <%Rank>  (40) 
15.47619

>  <N_hits>  (40) 
2

>  <submitter_name>  (40) 
nan

>  <original SMILES>  (40) 
nan

>  <∆G_unbound>  (40) 
5.735571

>  <∆G_bound>  (40) 
-15.16674

>  <regarded>  (40) 
mArh-x0855_0_A,mArh-5cb5_K_0_K

>  <ref_pdb>  (40) 
nan

>  <smiles>  (40) 
Nc1ncnc2c1ncn2C1CC(C(C(=O)O)n2cc(Br)cn2)C(CO[P@@](=O)(O)O[P@@](=O)(O)OCC2OC(O)C(O)C2O)O1

>  <submitter_email>  (40) 
nan

>  <disregarded>  (40) 


>  <LE>  (40) 
-0.475053

>  <submitter_institution>  (40) 
nan

>  <ref_mols>  (40) 
mArh-x0855_0_A,mArh-5cb5_K_0_K

>  <N_constrained_atoms>  (40) 
44.0

>  <ref_url>  (40) 
nan

>  <method>  (40) 
nan

>  <comRMSD>  (40) 
0.669283

>  <N_unconstrained_atoms>  (40) 
0.0

>  <∆∆G>  (40) 
-20.902311

>  <runtime>  (40) 
29.317083

>  <generation_date>  (40) 
nan

$$$$
mArh-5cb5_A_0_A-mArh-6mea_B_0_B
     RDKit          3D

 36 39  0  0  0  0  0  0  0  0999 V2000
   -1.6970   18.3630   -6.1210 P   0  0  1  0  0  0  0  0  0  0  0  0
   -0.4260   17.4250   -6.3150 O   0  0  0  0  0  0  0  0  0  0  0  0
    0.3610   16.9600   -5.2290 C   0  0  0  0  0  0  0  0  0  0  0  0
   -2.8690   17.6260   -6.8620 O   0  0  0  0  0  0  0  0  0  0  0  0
   -1.7730   18.5390   -4.5450 O   0  0  0  0  0  0  0  0  0  0  0  0
   -1.2130   19.7220   -6.6900 O   0  0  0  0  0  0  0  0  0  0  0  0
   -0.2950   19.9810   -7.9290 P   0  0  1  0  0  0  0  0  0  0  0  0
    0.9700   20.7110   -7.6700 O   0  0  0  0  0  0  0  0  0  0  0  0
   -0.1070   18.6140   -8.7430 O   0  0  0  0  0  0  0  0  0  0  0  0
   -1.3250   20.7190   -8.8660 O   0  0  0  0  0  0  0  0  0  0  0  0
   -0.4580   15.8760   -4.5560 C   0  0  2  0  0  0  0  0  0  0  0  0
   -1.9810   21.7980   -8.2380 C   0  0  0  0  0  0  0  0  0  0  0  0
   -0.1540   15.6850   -3.1680 O   0  0  0  0  0  0  0  0  0  0  0  0
   -0.2960   14.4590   -5.0400 C   0  0  1  0  0  0  0  0  0  0  0  0
    1.0390   13.9780   -4.9240 O   0  0  0  0  0  0  0  0  0  0  0  0
   -1.2240   13.7300   -4.1110 C   0  0  2  0  0  0  0  0  0  0  0  0
   -0.8110   14.4290   -2.8180 C   0  0  2  0  0  0  0  0  0  0  0  0
   -3.3790   21.9500   -8.8040 C   0  0  2  0  0  0  0  0  0  0  0  0
   -1.0000   12.3290   -4.1860 O   0  0  0  0  0  0  0  0  0  0  0  0
   -3.9050   23.2190   -8.7900 C   0  0  1  0  0  0  0  0  0  0  0  0
   -4.2550   21.1790   -7.9730 O   0  0  0  0  0  0  0  0  0  0  0  0
   -1.8900   14.7320   -1.9120 N   0  0  0  0  0  0  0  0  0  0  0  0
   -4.4310   23.6080  -10.0490 O   0  0  0  0  0  0  0  0  0  0  0  0
   -5.3820   21.9710   -7.6360 C   0  0  2  0  0  0  0  0  0  0  0  0
   -4.8980   23.3930   -7.8130 C   0  0  2  0  0  0  0  0  0  0  0  0
   -1.6950   14.7550   -0.5850 C   0  0  0  0  0  0  0  0  0  0  0  0
   -3.2180   15.0430   -2.1580 C   0  0  0  0  0  0  0  0  0  0  0  0
   -5.7940   21.7250   -6.2920 O   0  0  0  0  0  0  0  0  0  0  0  0
   -5.9040   24.2620   -8.2950 O   0  0  0  0  0  0  0  0  0  0  0  0
   -3.0550   15.1260   -0.0760 C   0  0  0  0  0  0  0  0  0  0  0  0
   -0.5470   14.5060    0.0410 N   0  0  0  0  0  0  0  0  0  0  0  0
   -3.9190   15.2820   -1.0510 N   0  0  0  0  0  0  0  0  0  0  0  0
   -3.0170   15.2090    1.3180 C   0  0  0  0  0  0  0  0  0  0  0  0
   -0.7310   14.6230    1.3490 C   0  0  0  0  0  0  0  0  0  0  0  0
   -4.0560   15.5340    1.9900 N   0  0  0  0  0  0  0  0  0  0  0  0
   -1.8650   14.9460    1.9920 N   0  0  0  0  0  0  0  0  0  0  0  0
  1  2  1  0
  2  3  1  0
  1  4  2  0
  1  5  1  1
  1  6  1  0
  6  7  1  0
  7  8  2  0
  7  9  1  6
  7 10  1  0
 11  3  1  6
 10 12  1  0
 11 13  1  0
 11 14  1  0
 14 15  1  1
 14 16  1  0
 13 17  1  0
 16 17  1  0
 18 12  1  1
 16 19  1  1
 18 20  1  0
 18 21  1  0
 17 22  1  1
 20 23  1  6
 21 24  1  0
 20 25  1  0
 24 25  1  0
 22 26  1  0
 22 27  1  0
 24 28  1  1
 25 29  1  6
 26 30  2  0
 26 31  1  0
 27 32  2  0
 30 32  1  0
 30 33  1  0
 31 34  2  0
 33 35  1  0
 33 36  2  0
 34 36  1  0
M  END
>  <%Rank>  (41) 
15.873016

>  <N_hits>  (41) 
2

>  <submitter_name>  (41) 
nan

>  <original SMILES>  (41) 
nan

>  <∆G_unbound>  (41) 
2.112923

>  <∆G_bound>  (41) 
-15.615371

>  <regarded>  (41) 
mArh-5cb5_A_0_A,mArh-6mea_B_0_B

>  <ref_pdb>  (41) 
nan

>  <smiles>  (41) 
Nc1ncnc2c1ncn2C1OC(CO[P@@](=O)(O)O[P@@](=O)(O)OCC2OC(O)C(O)C2O)C(O)C1O

>  <submitter_email>  (41) 
nan

>  <disregarded>  (41) 


>  <LE>  (41) 
-0.492453

>  <submitter_institution>  (41) 
nan

>  <ref_mols>  (41) 
mArh-5cb5_A_0_A,mArh-6mea_B_0_B

>  <N_constrained_atoms>  (41) 
36.0

>  <ref_url>  (41) 
nan

>  <method>  (41) 
nan

>  <comRMSD>  (41) 
0.6112

>  <N_unconstrained_atoms>  (41) 
0.0

>  <∆∆G>  (41) 
-17.728294

>  <runtime>  (41) 
53.140171

>  <generation_date>  (41) 
nan

$$$$
mArh-x0727_0_A-mArh-x0685_0_A
     RDKit          3D

 27 28  0  0  0  0  0  0  0  0999 V2000
    0.2150   11.5670   -5.4690 N   0  0  0  0  0  0  0  0  0  0  0  0
    1.0160   12.3650   -4.5280 C   0  0  1  0  0  0  0  0  0  0  0  0
    0.8490   13.8800   -4.6050 C   0  0  0  0  0  0  0  0  0  0  0  0
    0.7530   11.2070   -6.6880 C   0  0  0  0  0  0  0  0  0  0  0  0
    1.7050   11.7860   -7.1340 O   0  0  0  0  0  0  0  0  0  0  0  0
    0.8220   11.8530   -3.1050 C   0  0  0  0  0  0  0  0  0  0  0  0
    0.0890   10.0270   -7.3990 C   0  0  0  0  0  0  0  0  0  0  0  0
    0.2710   10.8100   -2.7970 O   0  0  0  0  0  0  0  0  0  0  0  0
    1.3320   12.6720   -2.1670 O   0  0  0  0  0  0  0  0  0  0  0  0
   -0.2820   14.3180   -5.5000 C   0  0  0  0  0  0  0  0  0  0  0  0
   -1.2210   10.3960   -8.1000 C   0  0  0  0  0  0  0  0  0  0  0  0
   -0.2590    8.8850   -6.4240 C   0  0  0  0  0  0  0  0  0  0  0  0
   -1.6780   13.9870   -4.9740 C   0  0  0  0  0  0  0  0  0  0  0  0
   -2.1050    9.1660   -7.9360 C   0  0  0  0  0  0  0  0  0  0  0  0
   -1.7560    8.6570   -6.5470 C   0  0  0  0  0  0  0  0  0  0  0  0
   -2.5090   15.2410   -4.7060 C   0  0  0  0  0  0  0  0  0  0  0  0
   -3.0460   15.1880   -3.3470 C   0  0  0  0  0  0  0  0  0  0  0  0
   -3.5230   15.0900   -2.2630 C   0  0  0  0  0  0  0  0  0  0  0  0
   -4.1700   15.0670   -1.0080 C   0  0  0  0  0  0  0  0  0  0  0  0
   -3.4790   15.1910    0.1840 C   0  0  0  0  0  0  0  0  0  0  0  0
   -5.5410   14.9240   -0.9610 C   0  0  0  0  0  0  0  0  0  0  0  0
   -4.1970   15.1780    1.3720 C   0  0  0  0  0  0  0  0  0  0  0  0
   -6.2570   14.9030    0.1760 N   0  0  0  0  0  0  0  0  0  0  0  0
   -5.5920   15.0370    1.3310 C   0  0  0  0  0  0  0  0  0  0  0  0
   -6.2980   15.0510    2.5420 N   0  0  0  0  0  0  0  0  0  0  0  0
   -7.7160   14.7360    2.5380 C   0  0  0  0  0  0  0  0  0  0  0  0
   -7.9450   13.3560    3.1240 C   0  0  0  0  0  0  0  0  0  0  0  0
  1  2  1  0
  2  3  1  1
  1  4  1  0
  4  5  2  0
  2  6  1  0
  4  7  1  0
  6  8  2  0
  6  9  1  0
  3 10  1  0
  7 11  1  0
  7 12  1  0
 10 13  1  0
 11 14  1  0
 12 15  1  0
 14 15  1  0
 13 16  1  0
 16 17  1  0
 17 18  3  0
 18 19  1  0
 19 20  2  0
 19 21  1  0
 20 22  1  0
 21 23  2  0
 22 24  2  0
 23 24  1  0
 24 25  1  0
 25 26  1  0
 26 27  1  0
M  END
>  <%Rank>  (42) 
16.269841

>  <N_hits>  (42) 
2

>  <submitter_name>  (42) 
nan

>  <original SMILES>  (42) 
nan

>  <∆G_unbound>  (42) 
0.665349

>  <∆G_bound>  (42) 
-7.030714

>  <regarded>  (42) 
mArh-x0727_0_A,mArh-x0685_0_A

>  <ref_pdb>  (42) 
nan

>  <smiles>  (42) 
CCNc1ccc(C#CCCCC[C@H](NC(=O)C2CCCC2)C(=O)O)cn1

>  <submitter_email>  (42) 
nan

>  <disregarded>  (42) 


>  <LE>  (42) 
-0.285039

>  <submitter_institution>  (42) 
nan

>  <ref_mols>  (42) 
mArh-x0727_0_A,mArh-x0685_0_A

>  <N_constrained_atoms>  (42) 
24.0

>  <ref_url>  (42) 
nan

>  <method>  (42) 
nan

>  <comRMSD>  (42) 
0.301404

>  <N_unconstrained_atoms>  (42) 
3.0

>  <∆∆G>  (42) 
-7.696063

>  <runtime>  (42) 
32.852621

>  <generation_date>  (42) 
nan

$$$$
mArh-1hjz_B_0_B-mArh-5cms_O_14_O
     RDKit          3D

 44 48  0  0  0  0  0  0  0  0999 V2000
    1.3990   21.1250   -7.3840 O   0  0  0  0  0  0  0  0  0  0  0  0
    0.2070   20.3330   -7.6420 S   0  0  1  0  0  0  0  0  0  0  0  0
    0.2840   18.9430   -8.1870 N   0  0  0  0  0  0  0  0  0  0  0  0
   -0.6630   19.9830   -6.3340 O   0  0  0  0  0  0  0  0  0  0  0  0
   -1.0570   21.3780   -8.4460 C   0  0  1  0  0  0  0  0  0  0  0  0
   -1.9970   22.0210   -7.3880 C   0  0  0  0  0  0  0  0  0  0  0  0
   -1.2700   18.5390   -6.0490 P   0  0  2  0  0  0  0  0  0  0  0  0
   -0.8720   18.5790   -8.8310 O   0  0  0  0  0  0  0  0  0  0  0  0
   -0.2300   22.4350   -9.2190 C   0  0  0  0  0  0  0  0  0  0  0  0
   -0.3330   17.7950   -4.9870 O   0  0  0  0  0  0  0  0  0  0  0  0
   -2.0440   17.7720   -7.0710 O   0  0  0  0  0  0  0  0  0  0  0  0
   -2.3920   19.0880   -5.0810 O   0  0  0  0  0  0  0  0  0  0  0  0
   -3.4300   22.2100   -7.6550 N   0  0  0  0  0  0  0  0  0  0  0  0
   -0.7050   22.9910  -10.5610 C   0  0  2  0  0  0  0  0  0  0  0  0
    0.6000   16.7690   -5.3010 C   0  0  0  0  0  0  0  0  0  0  0  0
   -3.5680   23.1300   -8.7790 C   0  0  0  0  0  0  0  0  0  0  0  0
   -4.2100   22.7520   -6.5220 C   0  0  0  0  0  0  0  0  0  0  0  0
   -1.3630   24.3460  -10.5670 C   0  0  1  0  0  0  0  0  0  0  0  0
   -1.5380   22.0790  -11.3060 O   0  0  0  0  0  0  0  0  0  0  0  0
   -0.6740   25.3150  -11.3390 O   0  0  0  0  0  0  0  0  0  0  0  0
   -5.0380   23.4420   -9.0570 C   0  0  0  0  0  0  0  0  0  0  0  0
   -4.7730   24.1500   -6.8050 C   0  0  0  0  0  0  0  0  0  0  0  0
   -0.0620   15.5100   -4.8080 C   0  0  2  0  0  0  0  0  0  0  0  0
   -2.8610   22.5870  -11.3490 C   0  0  2  0  0  0  0  0  0  0  0  0
   -2.7710   24.0950  -11.0900 C   0  0  2  0  0  0  0  0  0  0  0  0
   -3.6320   21.9580  -10.3510 O   0  0  0  0  0  0  0  0  0  0  0  0
   -2.9180   24.8530  -12.3050 O   0  0  0  0  0  0  0  0  0  0  0  0
   -5.5700   24.2320   -7.9960 O   0  0  0  0  0  0  0  0  0  0  0  0
   -0.0280   15.4540   -3.4020 O   0  0  0  0  0  0  0  0  0  0  0  0
    0.2140   14.0490   -5.2010 C   0  0  1  0  0  0  0  0  0  0  0  0
    1.5300   13.5510   -5.0120 O   0  0  0  0  0  0  0  0  0  0  0  0
   -0.7930   13.3870   -4.2230 C   0  0  2  0  0  0  0  0  0  0  0  0
   -1.1540   14.6270   -3.3760 C   0  0  1  0  0  0  0  0  0  0  0  0
   -0.1600   12.3460   -3.4780 O   0  0  0  0  0  0  0  0  0  0  0  0
   -1.9190   14.7480   -2.1600 N   0  0  0  0  0  0  0  0  0  0  0  0
   -1.5120   14.7290   -0.8360 C   0  0  0  0  0  0  0  0  0  0  0  0
   -3.2650   14.9550   -2.1760 C   0  0  0  0  0  0  0  0  0  0  0  0
   -2.6990   14.9610   -0.1430 C   0  0  0  0  0  0  0  0  0  0  0  0
   -0.3130   14.5580   -0.3070 N   0  0  0  0  0  0  0  0  0  0  0  0
   -3.7680   15.0880   -0.9850 N   0  0  0  0  0  0  0  0  0  0  0  0
   -2.6310   15.0390    1.2320 C   0  0  0  0  0  0  0  0  0  0  0  0
   -0.3840   14.6340    1.0460 C   0  0  0  0  0  0  0  0  0  0  0  0
   -3.7470   15.3170    1.9890 N   0  0  0  0  0  0  0  0  0  0  0  0
   -1.4540   14.8550    1.8310 N   0  0  0  0  0  0  0  0  0  0  0  0
  1  2  2  0
  2  3  2  0
  2  4  1  1
  2  5  1  0
  5  6  1  1
  4  7  1  0
  3  8  1  0
  5  9  1  0
  7 10  1  0
  7 11  2  0
  7 12  1  1
  6 13  1  0
 14  9  1  1
 10 15  1  0
 13 16  1  0
 13 17  1  0
 14 18  1  0
 14 19  1  0
 18 20  1  6
 16 21  1  0
 17 22  1  0
 23 15  1  6
 19 24  1  0
 18 25  1  0
 24 25  1  0
 24 26  1  1
 25 27  1  6
 21 28  1  0
 22 28  1  0
 23 29  1  0
 23 30  1  0
 30 31  1  1
 30 32  1  0
 29 33  1  0
 32 33  1  0
 32 34  1  1
 33 35  1  1
 35 36  1  0
 35 37  1  0
 36 38  2  0
 36 39  1  0
 37 40  2  0
 38 40  1  0
 38 41  1  0
 39 42  2  0
 41 43  1  0
 41 44  2  0
 42 44  1  0
M  END
>  <%Rank>  (43) 
16.666667

>  <N_hits>  (43) 
2

>  <submitter_name>  (43) 
nan

>  <original SMILES>  (43) 
nan

>  <∆G_unbound>  (43) 
7.082893

>  <∆G_bound>  (43) 
-12.021193

>  <regarded>  (43) 
mArh-1hjz_B_0_B,mArh-5cms_O_14_O

>  <ref_pdb>  (43) 
nan

>  <smiles>  (43) 
Nc1ncnc2c1ncn2C1OC(CO[P@@](=O)(O)OS(=O)(=NO)C(CC2OC(O)C(O)C2O)CN2CCOCC2)C(O)C1O

>  <submitter_email>  (43) 
nan

>  <disregarded>  (43) 


>  <LE>  (43) 
-0.434184

>  <submitter_institution>  (43) 
nan

>  <ref_mols>  (43) 
mArh-1hjz_B_0_B,mArh-5cms_O_14_O

>  <N_constrained_atoms>  (43) 
44.0

>  <ref_url>  (43) 
nan

>  <method>  (43) 
nan

>  <comRMSD>  (43) 
0.65451

>  <N_unconstrained_atoms>  (43) 
0.0

>  <∆∆G>  (43) 
-19.104086

>  <runtime>  (43) 
54.598418

>  <generation_date>  (43) 
nan

$$$$
mArh-x0905_0_A-mArh-5cb5_L_0_L
     RDKit          3D

 43 47  0  0  0  0  0  0  0  0999 V2000
   -7.8640   14.7000   -0.3510 O   0  0  0  0  0  0  0  0  0  0  0  0
   -6.5490   14.9690   -0.4710 C   0  0  0  0  0  0  0  0  0  0  0  0
   -5.9050   14.8560    0.6940 N   0  0  0  0  0  0  0  0  0  0  0  0
   -6.0300   15.3110   -1.7000 C   0  0  0  0  0  0  0  0  0  0  0  0
   -4.6050   15.1090    0.6320 C   0  0  0  0  0  0  0  0  0  0  0  0
   -4.6900   15.5770   -1.7870 C   0  0  0  0  0  0  0  0  0  0  0  0
   -3.7070   15.0550    1.6540 N   0  0  0  0  0  0  0  0  0  0  0  0
   -3.9210   15.4940   -0.6520 C   0  0  0  0  0  0  0  0  0  0  0  0
   -2.4240   14.8670    1.2000 C   0  0  0  0  0  0  0  0  0  0  0  0
   -1.3070   14.7280    1.9700 N   0  0  0  0  0  0  0  0  0  0  0  0
   -2.2370   14.8190   -0.1980 C   0  0  0  0  0  0  0  0  0  0  0  0
   -0.9560   14.6670   -0.6640 C   0  0  0  0  0  0  0  0  0  0  0  0
   -0.1390   14.5880    1.3700 C   0  0  0  0  0  0  0  0  0  0  0  0
   -3.1210   14.9000   -1.2600 N   0  0  0  0  0  0  0  0  0  0  0  0
    0.1560   14.5500    0.0520 N   0  0  0  0  0  0  0  0  0  0  0  0
   -1.0550   14.6650   -2.0170 N   0  0  0  0  0  0  0  0  0  0  0  0
   -2.3770   14.8030   -2.3430 C   0  0  0  0  0  0  0  0  0  0  0  0
    0.0380   14.5480   -2.9300 C   0  0  2  0  0  0  0  0  0  0  0  0
    0.2920   15.8490   -3.4480 O   0  0  0  0  0  0  0  0  0  0  0  0
   -0.0230   13.5660   -4.1010 C   0  0  1  0  0  0  0  0  0  0  0  0
   -1.2520   12.9430   -4.3800 O   0  0  0  0  0  0  0  0  0  0  0  0
    0.9610   15.6950   -4.6980 C   0  0  1  0  0  0  0  0  0  0  0  0
    0.5230   14.3310   -5.2880 C   0  0  1  0  0  0  0  0  0  0  0  0
    0.6310   16.9550   -5.4850 C   0  0  0  0  0  0  0  0  0  0  0  0
    1.5520   13.5010   -5.8370 O   0  0  0  0  0  0  0  0  0  0  0  0
   -0.7280   16.8750   -5.8730 O   0  0  0  0  0  0  0  0  0  0  0  0
   -1.5320   18.2330   -6.1090 P   0  0  1  0  0  0  0  0  0  0  0  0
   -2.6670   18.0810   -7.0470 O   0  0  0  0  0  0  0  0  0  0  0  0
   -1.8700   18.6470   -4.6160 O   0  0  0  0  0  0  0  0  0  0  0  0
   -0.4130   19.2690   -6.4780 O   0  0  0  0  0  0  0  0  0  0  0  0
   -0.1590   19.9280   -7.8800 P   0  0  1  0  0  0  0  0  0  0  0  0
    0.9120   20.9620   -7.8560 O   0  0  0  0  0  0  0  0  0  0  0  0
    0.1180   18.6900   -8.8570 O   0  0  0  0  0  0  0  0  0  0  0  0
   -1.5480   20.4530   -8.4340 O   0  0  0  0  0  0  0  0  0  0  0  0
   -1.9970   21.7250   -8.0250 C   0  0  0  0  0  0  0  0  0  0  0  0
   -3.2690   22.0650   -8.7780 C   0  0  2  0  0  0  0  0  0  0  0  0
   -3.6960   23.5000   -8.5650 C   0  0  1  0  0  0  0  0  0  0  0  0
   -4.3290   21.2110   -8.3270 O   0  0  0  0  0  0  0  0  0  0  0  0
   -4.2370   24.1040   -9.7310 O   0  0  0  0  0  0  0  0  0  0  0  0
   -5.2650   21.9570   -7.5540 C   0  0  2  0  0  0  0  0  0  0  0  0
   -4.8060   23.4120   -7.5440 C   0  0  2  0  0  0  0  0  0  0  0  0
   -5.3030   21.4310   -6.2310 O   0  0  0  0  0  0  0  0  0  0  0  0
   -5.8600   24.2140   -8.0610 O   0  0  0  0  0  0  0  0  0  0  0  0
  1  2  1  0
  2  3  2  0
  2  4  1  0
  3  5  1  0
  4  6  2  0
  5  7  1  0
  5  8  2  0
  6  8  1  0
  7  9  1  0
  9 10  2  0
  9 11  1  0
 11 12  2  0
 10 13  1  0
 11 14  1  0
 12 15  1  0
 13 15  2  0
 12 16  1  0
 14 17  2  0
 16 17  1  0
 18 16  1  6
 18 19  1  0
 18 20  1  0
 20 21  1  6
 19 22  1  0
 20 23  1  0
 22 23  1  0
 22 24  1  6
 23 25  1  1
 24 26  1  0
 26 27  1  0
 27 28  2  0
 27 29  1  1
 27 30  1  0
 30 31  1  0
 31 32  2  0
 31 33  1  6
 31 34  1  0
 34 35  1  0
 36 35  1  1
 36 37  1  0
 36 38  1  0
 37 39  1  6
 38 40  1  0
 37 41  1  0
 40 41  1  0
 40 42  1  1
 41 43  1  6
M  END
>  <%Rank>  (44) 
17.063492

>  <N_hits>  (44) 
2

>  <submitter_name>  (44) 
nan

>  <original SMILES>  (44) 
nan

>  <∆G_unbound>  (44) 
5.194257

>  <∆G_bound>  (44) 
-12.558563

>  <regarded>  (44) 
mArh-x0905_0_A,mArh-5cb5_L_0_L

>  <ref_pdb>  (44) 
nan

>  <smiles>  (44) 
O=[P@](O)(OCC1OC(O)C(O)C1O)O[P@](=O)(O)OCC1OC(n2cnc3c(Nc4cccc(O)n4)ncnc32)C(O)C1O

>  <submitter_email>  (44) 
nan

>  <disregarded>  (44) 


>  <LE>  (44) 
-0.412856

>  <submitter_institution>  (44) 
nan

>  <ref_mols>  (44) 
mArh-x0905_0_A,mArh-5cb5_L_0_L

>  <N_constrained_atoms>  (44) 
43.0

>  <ref_url>  (44) 
nan

>  <method>  (44) 
nan

>  <comRMSD>  (44) 
0.638721

>  <N_unconstrained_atoms>  (44) 
0.0

>  <∆∆G>  (44) 
-17.75282

>  <runtime>  (44) 
62.336452

>  <generation_date>  (44) 
nan

$$$$
mArh-5cb5_B_0_B-mArh-5cb5_C_0_C
     RDKit          3D

 36 39  0  0  0  0  0  0  0  0999 V2000
   -1.6090   18.3190   -6.1500 P   0  0  1  0  0  0  0  0  0  0  0  0
   -0.3580   17.3850   -6.3510 O   0  0  0  0  0  0  0  0  0  0  0  0
    0.4540   16.8680   -5.3310 C   0  0  0  0  0  0  0  0  0  0  0  0
   -2.8180   17.8980   -6.9040 O   0  0  0  0  0  0  0  0  0  0  0  0
   -1.8600   18.3330   -4.5820 O   0  0  0  0  0  0  0  0  0  0  0  0
   -1.0770   19.7490   -6.4450 O   0  0  0  0  0  0  0  0  0  0  0  0
   -0.3770   20.0200   -7.8230 P   0  0  1  0  0  0  0  0  0  0  0  0
    0.7620   20.9720   -7.8300 O   0  0  0  0  0  0  0  0  0  0  0  0
    0.0430   18.6010   -8.4570 O   0  0  0  0  0  0  0  0  0  0  0  0
   -1.6170   20.3540   -8.7220 O   0  0  0  0  0  0  0  0  0  0  0  0
   -0.2460   15.6890   -4.6960 C   0  0  2  0  0  0  0  0  0  0  0  0
   -2.0690   21.6570   -8.9610 C   0  0  0  0  0  0  0  0  0  0  0  0
    0.0610   15.6430   -3.3040 O   0  0  0  0  0  0  0  0  0  0  0  0
    0.0450   14.2750   -5.1950 C   0  0  1  0  0  0  0  0  0  0  0  0
    1.4120   13.8840   -5.3210 O   0  0  0  0  0  0  0  0  0  0  0  0
   -0.5570   13.4730   -4.0480 C   0  0  1  0  0  0  0  0  0  0  0  0
   -0.4610   14.3780   -2.8210 C   0  0  2  0  0  0  0  0  0  0  0  0
   -3.1070   22.1040   -7.9580 C   0  0  1  0  0  0  0  0  0  0  0  0
   -1.7910   12.9560   -4.4910 O   0  0  0  0  0  0  0  0  0  0  0  0
   -3.7040   23.4550   -8.2500 C   0  0  1  0  0  0  0  0  0  0  0  0
   -4.2530   21.2290   -7.9540 O   0  0  0  0  0  0  0  0  0  0  0  0
   -1.5870   14.6740   -1.9830 N   0  0  0  0  0  0  0  0  0  0  0  0
   -4.2610   23.5900   -9.5580 O   0  0  0  0  0  0  0  0  0  0  0  0
   -5.3110   21.9970   -7.3370 C   0  0  2  0  0  0  0  0  0  0  0  0
   -4.7550   23.4230   -7.1730 C   0  0  2  0  0  0  0  0  0  0  0  0
   -1.5660   14.7110   -0.6730 C   0  0  0  0  0  0  0  0  0  0  0  0
   -2.9080   14.9930   -2.2750 C   0  0  0  0  0  0  0  0  0  0  0  0
   -5.6770   21.4450   -6.0580 O   0  0  0  0  0  0  0  0  0  0  0  0
   -5.8040   24.3480   -7.3320 O   0  0  0  0  0  0  0  0  0  0  0  0
   -2.7740   15.0420   -0.0950 C   0  0  0  0  0  0  0  0  0  0  0  0
   -0.4170   14.4430   -0.0260 N   0  0  0  0  0  0  0  0  0  0  0  0
   -3.6460   15.2210   -1.1610 N   0  0  0  0  0  0  0  0  0  0  0  0
   -2.8530   15.1260    1.2840 C   0  0  0  0  0  0  0  0  0  0  0  0
   -0.5300   14.5150    1.3030 C   0  0  0  0  0  0  0  0  0  0  0  0
   -3.9960   15.4780    1.9750 N   0  0  0  0  0  0  0  0  0  0  0  0
   -1.6130   14.8190    2.0250 N   0  0  0  0  0  0  0  0  0  0  0  0
  1  2  1  0
  2  3  1  0
  1  4  2  0
  1  5  1  1
  1  6  1  0
  6  7  1  0
  7  8  2  0
  7  9  1  6
  7 10  1  0
 11  3  1  6
 10 12  1  0
 11 13  1  0
 11 14  1  0
 14 15  1  1
 14 16  1  0
 13 17  1  0
 16 17  1  0
 18 12  1  6
 16 19  1  6
 18 20  1  0
 18 21  1  0
 17 22  1  6
 20 23  1  6
 21 24  1  0
 20 25  1  0
 24 25  1  0
 22 26  1  0
 22 27  1  0
 24 28  1  1
 25 29  1  6
 26 30  2  0
 26 31  1  0
 27 32  2  0
 30 32  1  0
 30 33  1  0
 31 34  2  0
 33 35  1  0
 33 36  2  0
 34 36  1  0
M  END
>  <%Rank>  (45) 
17.460317

>  <N_hits>  (45) 
2

>  <submitter_name>  (45) 
nan

>  <original SMILES>  (45) 
nan

>  <∆G_unbound>  (45) 
4.122881

>  <∆G_bound>  (45) 
-14.380005

>  <regarded>  (45) 
mArh-5cb5_B_0_B,mArh-5cb5_C_0_C

>  <ref_pdb>  (45) 
nan

>  <smiles>  (45) 
Nc1ncnc2c1ncn2C1OC(CO[P@@](=O)(O)O[P@@](=O)(O)OCC2OC(O)C(O)C2O)C(O)C1O

>  <submitter_email>  (45) 
nan

>  <disregarded>  (45) 


>  <LE>  (45) 
-0.513969

>  <submitter_institution>  (45) 
nan

>  <ref_mols>  (45) 
mArh-5cb5_B_0_B,mArh-5cb5_C_0_C

>  <N_constrained_atoms>  (45) 
36.0

>  <ref_url>  (45) 
nan

>  <method>  (45) 
nan

>  <comRMSD>  (45) 
0.639125

>  <N_unconstrained_atoms>  (45) 
0.0

>  <∆∆G>  (45) 
-18.502886

>  <runtime>  (45) 
41.544759

>  <generation_date>  (45) 
nan

$$$$
mArh-5cb5_I_0_I-mArh-5cms_O_14_O
     RDKit          3D

 44 48  0  0  0  0  0  0  0  0999 V2000
   -1.5170   18.0840   -6.1700 P   0  0  1  0  0  0  0  0  0  0  0  0
   -0.1890   17.1920   -6.0470 O   0  0  0  0  0  0  0  0  0  0  0  0
    0.4510   17.1080   -4.7670 C   0  0  0  0  0  0  0  0  0  0  0  0
   -2.6380   17.4760   -6.8910 O   0  0  0  0  0  0  0  0  0  0  0  0
   -1.8820   18.3360   -4.6420 O   0  0  0  0  0  0  0  0  0  0  0  0
   -1.1210   19.5360   -6.6180 O   0  0  0  0  0  0  0  0  0  0  0  0
   -0.2720   19.9250   -7.8850 P   0  0  1  0  0  0  0  0  0  0  0  0
    0.9900   20.6670   -7.6430 O   0  0  0  0  0  0  0  0  0  0  0  0
   -0.0560   18.5660   -8.7020 O   0  0  0  0  0  0  0  0  0  0  0  0
   -1.3020   20.5860   -8.9000 O   0  0  0  0  0  0  0  0  0  0  0  0
    0.8100   15.6630   -4.3080 C   0  0  1  0  0  0  0  0  0  0  0  0
   -1.6740   21.9600   -8.8590 C   0  0  0  0  0  0  0  0  0  0  0  0
    0.2640   15.4500   -2.9950 O   0  0  0  0  0  0  0  0  0  0  0  0
    0.2520   14.4770   -5.1460 C   0  0  1  0  0  0  0  0  0  0  0  0
    1.2330   13.4850   -5.4360 O   0  0  0  0  0  0  0  0  0  0  0  0
   -0.8830   13.8520   -4.3120 C   0  0  2  0  0  0  0  0  0  0  0  0
   -1.0500   14.9790   -3.3210 C   0  0  1  0  0  0  0  0  0  0  0  0
   -3.2210   22.0070   -8.8020 C   0  0  2  0  0  0  0  0  0  0  0  0
   -1.0560   22.6150  -10.1330 C   0  0  2  0  0  0  0  0  0  0  0  0
   -0.4500   12.6000   -3.7830 O   0  0  0  0  0  0  0  0  0  0  0  0
   -3.8940   23.3320   -8.3640 C   0  0  1  0  0  0  0  0  0  0  0  0
   -3.8580   20.9760   -8.0100 O   0  0  0  0  0  0  0  0  0  0  0  0
   -1.9100   14.9660   -2.1700 N   0  0  0  0  0  0  0  0  0  0  0  0
   -1.3440   24.0950  -10.3380 C   0  0  1  0  0  0  0  0  0  0  0  0
   -1.6470   21.9730  -11.2660 O   0  0  0  0  0  0  0  0  0  0  0  0
   -4.7850   23.8970   -9.3240 O   0  0  0  0  0  0  0  0  0  0  0  0
   -0.3920   24.7390  -11.2040 O   0  0  0  0  0  0  0  0  0  0  0  0
   -5.0910   21.5300   -7.5900 C   0  0  2  0  0  0  0  0  0  0  0  0
   -4.6800   22.9210   -7.1350 C   0  0  2  0  0  0  0  0  0  0  0  0
   -1.5500   14.8670   -0.8460 C   0  0  0  0  0  0  0  0  0  0  0  0
   -3.2700   15.1030   -2.2320 C   0  0  0  0  0  0  0  0  0  0  0  0
   -2.8980   22.6090  -11.4330 C   0  0  2  0  0  0  0  0  0  0  0  0
   -2.6980   24.0780  -11.0610 C   0  0  2  0  0  0  0  0  0  0  0  0
   -5.6310   20.7770   -6.5270 O   0  0  0  0  0  0  0  0  0  0  0  0
   -5.8050   23.8120   -6.9930 O   0  0  0  0  0  0  0  0  0  0  0  0
   -3.8210   22.0260  -10.5530 O   0  0  0  0  0  0  0  0  0  0  0  0
   -2.6500   24.9360  -12.2130 O   0  0  0  0  0  0  0  0  0  0  0  0
   -2.7600   14.9980   -0.1820 C   0  0  0  0  0  0  0  0  0  0  0  0
   -0.3290   14.7100   -0.2860 N   0  0  0  0  0  0  0  0  0  0  0  0
   -3.8190   15.1280   -1.0460 N   0  0  0  0  0  0  0  0  0  0  0  0
   -2.7130   14.9940    1.2030 C   0  0  0  0  0  0  0  0  0  0  0  0
   -0.4330   14.6960    1.0600 C   0  0  0  0  0  0  0  0  0  0  0  0
   -3.8540   15.1760    1.9440 N   0  0  0  0  0  0  0  0  0  0  0  0
   -1.5280   14.8240    1.8260 N   0  0  0  0  0  0  0  0  0  0  0  0
  1  2  1  0
  2  3  1  0
  1  4  2  0
  1  5  1  1
  1  6  1  0
  6  7  1  0
  7  8  2  0
  7  9  1  6
  7 10  1  0
 11  3  1  6
 10 12  1  0
 11 13  1  0
 11 14  1  0
 14 15  1  1
 14 16  1  0
 13 17  1  0
 16 17  1  0
 18 12  1  1
 19 12  1  1
 16 20  1  1
 18 21  1  0
 18 22  1  0
 17 23  1  1
 19 24  1  0
 19 25  1  0
 21 26  1  6
 24 27  1  6
 22 28  1  0
 21 29  1  0
 28 29  1  0
 23 30  1  0
 23 31  1  0
 25 32  1  0
 24 33  1  0
 32 33  1  0
 28 34  1  1
 29 35  1  6
 32 36  1  1
 33 37  1  6
 30 38  2  0
 30 39  1  0
 31 40  2  0
 38 40  1  0
 38 41  1  0
 39 42  2  0
 41 43  1  0
 41 44  2  0
 42 44  1  0
M  END
>  <%Rank>  (46) 
17.857143

>  <N_hits>  (46) 
2

>  <submitter_name>  (46) 
nan

>  <original SMILES>  (46) 
nan

>  <∆G_unbound>  (46) 
6.519983

>  <∆G_bound>  (46) 
-11.511611

>  <regarded>  (46) 
mArh-5cb5_I_0_I,mArh-5cms_O_14_O

>  <ref_pdb>  (46) 
nan

>  <smiles>  (46) 
Nc1ncnc2c1ncn2C1OC(CO[P@@](=O)(O)O[P@@](=O)(O)OC(C2OC(O)C(O)C2O)C2OC(O)C(O)C2O)C(O)C1O

>  <submitter_email>  (46) 
nan

>  <disregarded>  (46) 


>  <LE>  (46) 
-0.409809

>  <submitter_institution>  (46) 
nan

>  <ref_mols>  (46) 
mArh-5cb5_I_0_I,mArh-5cms_O_14_O

>  <N_constrained_atoms>  (46) 
44.0

>  <ref_url>  (46) 
nan

>  <method>  (46) 
nan

>  <comRMSD>  (46) 
0.658336

>  <N_unconstrained_atoms>  (46) 
0.0

>  <∆∆G>  (46) 
-18.031594

>  <runtime>  (46) 
57.350275

>  <generation_date>  (46) 
nan

$$$$
mArh-2bfq_0_A-mArh-5cb3_0_A
     RDKit          3D

 37 40  0  0  0  0  0  0  0  0999 V2000
   -1.4240   18.5200   -5.9580 P   0  0  2  0  0  0  0  0  0  0  0  0
   -0.2180   17.5060   -6.1660 O   0  0  0  0  0  0  0  0  0  0  0  0
    0.5860   17.0470   -5.0840 C   0  0  0  0  0  0  0  0  0  0  0  0
   -1.9190   18.5980   -4.5640 O   0  0  0  0  0  0  0  0  0  0  0  0
   -2.6000   18.0350   -6.9200 O   0  0  0  0  0  0  0  0  0  0  0  0
   -0.9350   19.8990   -6.5000 O   0  0  0  0  0  0  0  0  0  0  0  0
   -0.1910   20.1030   -7.8680 P   0  0  2  0  0  0  0  0  0  0  0  0
    0.0480   18.8630   -8.6820 O   0  0  0  0  0  0  0  0  0  0  0  0
    1.1350   20.9430   -7.4960 O   0  0  0  0  0  0  0  0  0  0  0  0
   -1.0370   21.3110   -8.5660 N   0  0  0  0  0  0  0  0  0  0  0  0
   -0.2470   15.9300   -4.4800 C   0  0  2  0  0  0  0  0  0  0  0  0
   -1.4060   22.4500   -7.7510 C   0  0  0  0  0  0  0  0  0  0  0  0
   -2.2830   20.9420   -9.1530 O   0  0  0  0  0  0  0  0  0  0  0  0
   -0.0570   15.7520   -3.0750 O   0  0  0  0  0  0  0  0  0  0  0  0
   -0.0490   14.5180   -4.9790 C   0  0  1  0  0  0  0  0  0  0  0  0
    1.2320   13.9280   -4.7970 O   0  0  0  0  0  0  0  0  0  0  0  0
   -1.0950   13.8640   -4.1180 C   0  0  2  0  0  0  0  0  0  0  0  0
   -0.7540   14.5050   -2.7700 C   0  0  2  0  0  0  0  0  0  0  0  0
   -2.8910   22.5730   -7.3540 C   0  0  1  0  0  0  0  0  0  0  0  0
   -0.8700   12.4550   -4.1350 O   0  0  0  0  0  0  0  0  0  0  0  0
   -3.6390   23.8610   -7.5620 C   0  0  1  0  0  0  0  0  0  0  0  0
   -3.8660   21.6100   -7.7710 O   0  0  0  0  0  0  0  0  0  0  0  0
   -1.8480   14.8040   -1.8770 N   0  0  0  0  0  0  0  0  0  0  0  0
   -4.3210   24.0800   -8.7980 O   0  0  0  0  0  0  0  0  0  0  0  0
   -4.9320   22.0400   -6.8890 C   0  0  1  0  0  0  0  0  0  0  0  0
   -4.5710   23.4870   -6.4640 C   0  0  2  0  0  0  0  0  0  0  0  0
   -1.7130   14.7630   -0.5440 C   0  0  0  0  0  0  0  0  0  0  0  0
   -3.1490   15.1700   -2.1560 C   0  0  0  0  0  0  0  0  0  0  0  0
   -6.1710   22.0260   -7.5650 O   0  0  0  0  0  0  0  0  0  0  0  0
   -5.7030   24.3580   -6.4250 O   0  0  0  0  0  0  0  0  0  0  0  0
   -2.9460   15.1180   -0.0390 C   0  0  0  0  0  0  0  0  0  0  0  0
   -0.5930   14.4440    0.1060 N   0  0  0  0  0  0  0  0  0  0  0  0
   -3.8460   15.3720   -1.0540 N   0  0  0  0  0  0  0  0  0  0  0  0
   -3.0350   15.1560    1.3400 C   0  0  0  0  0  0  0  0  0  0  0  0
   -0.7930   14.4910    1.4170 C   0  0  0  0  0  0  0  0  0  0  0  0
   -4.1920   15.5300    1.9930 N   0  0  0  0  0  0  0  0  0  0  0  0
   -1.9330   14.8140    2.0530 N   0  0  0  0  0  0  0  0  0  0  0  0
  1  2  1  0
  2  3  1  0
  1  4  2  0
  1  5  1  6
  1  6  1  0
  6  7  1  0
  7  8  2  0
  7  9  1  1
  7 10  1  0
 11  3  1  6
 10 12  1  0
 10 13  1  0
 11 14  1  0
 11 15  1  0
 15 16  1  1
 15 17  1  0
 14 18  1  0
 17 18  1  0
 19 12  1  6
 17 20  1  1
 19 21  1  0
 19 22  1  0
 18 23  1  6
 21 24  1  6
 22 25  1  0
 21 26  1  0
 25 26  1  0
 23 27  1  0
 23 28  1  0
 25 29  1  6
 26 30  1  6
 27 31  2  0
 27 32  1  0
 28 33  2  0
 31 33  1  0
 31 34  1  0
 32 35  2  0
 34 36  1  0
 34 37  2  0
 35 37  1  0
M  END
>  <%Rank>  (47) 
18.253968

>  <N_hits>  (47) 
2

>  <submitter_name>  (47) 
nan

>  <original SMILES>  (47) 
nan

>  <∆G_unbound>  (47) 
6.001033

>  <∆G_bound>  (47) 
-15.75626

>  <regarded>  (47) 
mArh-2bfq_0_A,mArh-5cb3_0_A

>  <ref_pdb>  (47) 
nan

>  <smiles>  (47) 
Nc1ncnc2c1ncn2C1OC(CO[P@](=O)(O)O[P@](=O)(O)N(O)CC2OC(O)C(O)C2O)C(O)C1O

>  <submitter_email>  (47) 
nan

>  <disregarded>  (47) 


>  <LE>  (47) 
-0.588035

>  <submitter_institution>  (47) 
nan

>  <ref_mols>  (47) 
mArh-2bfq_0_A,mArh-5cb3_0_A

>  <N_constrained_atoms>  (47) 
37.0

>  <ref_url>  (47) 
nan

>  <method>  (47) 
nan

>  <comRMSD>  (47) 
0.692347

>  <N_unconstrained_atoms>  (47) 
0.0

>  <∆∆G>  (47) 
-21.757293

>  <runtime>  (47) 
46.227043

>  <generation_date>  (47) 
nan

$$$$
mArh-x0626_0_A-mArh-x0465_0_A
     RDKit          3D

 26 27  0  0  0  0  0  0  0  0999 V2000
   -5.0280   14.8750    1.4600 N   0  0  0  0  0  0  0  0  0  0  0  0
   -6.2070   14.6890    0.8120 C   0  0  0  0  0  0  0  0  0  0  0  0
   -6.2430   14.8170   -0.4160 O   0  0  0  0  0  0  0  0  0  0  0  0
   -3.8060   14.8690    0.8800 C   0  0  0  0  0  0  0  0  0  0  0  0
   -7.4450   14.3420    1.6160 C   0  0  0  0  0  0  0  0  0  0  0  0
   -2.6240   14.7940    1.4500 N   0  0  0  0  0  0  0  0  0  0  0  0
   -3.8720   14.9680   -0.8210 S   0  0  0  0  0  0  0  0  0  0  0  0
   -8.7180   14.7590    0.9020 C   0  0  0  0  0  0  0  0  0  0  0  0
   -2.1790   14.9060   -0.8430 C   0  0  0  0  0  0  0  0  0  0  0  0
   -1.6920   14.8240    0.4440 C   0  0  0  0  0  0  0  0  0  0  0  0
   -0.2730   14.7650    0.7830 C   0  0  0  0  0  0  0  0  0  0  0  0
    0.4330   13.8250   -0.1650 C   0  0  0  0  0  0  0  0  0  0  0  0
   -0.3990   13.1300   -1.2310 C   0  0  0  0  0  0  0  0  0  0  0  0
    0.0910   13.3790   -2.5740 N   0  0  0  0  0  0  0  0  0  0  0  0
    0.4710   12.3940   -3.3020 C   0  0  0  0  0  0  0  0  0  0  0  0
    0.9210   12.6230   -4.7490 C   0  0  1  0  0  0  0  0  0  0  0  0
    0.4820   11.1090   -2.8700 O   0  0  0  0  0  0  0  0  0  0  0  0
    2.4000   12.9940   -4.7520 C   0  0  0  0  0  0  0  0  0  0  0  0
    0.7390   11.5150   -5.6260 O   0  0  0  0  0  0  0  0  0  0  0  0
   -0.4730   10.8730   -5.6760 C   0  0  0  0  0  0  0  0  0  0  0  0
   -0.5660    9.8030   -6.5830 C   0  0  0  0  0  0  0  0  0  0  0  0
   -1.6000   11.1870   -4.9170 C   0  0  0  0  0  0  0  0  0  0  0  0
    0.4850    9.4570   -7.3410 F   0  0  0  0  0  0  0  0  0  0  0  0
   -1.7360    9.0610   -6.7330 C   0  0  0  0  0  0  0  0  0  0  0  0
   -2.7790   10.4480   -5.0640 C   0  0  0  0  0  0  0  0  0  0  0  0
   -2.8440    9.3890   -5.9680 C   0  0  0  0  0  0  0  0  0  0  0  0
  1  2  1  0
  2  3  2  0
  1  4  1  0
  2  5  1  0
  4  6  2  0
  4  7  1  0
  5  8  1  0
  7  9  1  0
  6 10  1  0
  9 10  2  0
 10 11  1  0
 11 12  1  0
 12 13  1  0
 13 14  1  0
 14 15  2  3
 15 16  1  0
 15 17  1  0
 16 18  1  1
 16 19  1  0
 19 20  1  0
 20 21  2  0
 20 22  1  0
 21 23  1  0
 21 24  1  0
 22 25  2  0
 24 26  2  0
 25 26  1  0
M  END
>  <%Rank>  (48) 
18.650794

>  <N_hits>  (48) 
2

>  <submitter_name>  (48) 
nan

>  <original SMILES>  (48) 
nan

>  <∆G_unbound>  (48) 
1.998958

>  <∆G_bound>  (48) 
-6.307339

>  <regarded>  (48) 
mArh-x0626_0_A,mArh-x0465_0_A

>  <ref_pdb>  (48) 
nan

>  <smiles>  (48) 
CCC(=O)Nc1nc(CCCN=C(O)[C@@H](C)Oc2ccccc2F)cs1

>  <submitter_email>  (48) 
nan

>  <disregarded>  (48) 


>  <LE>  (48) 
-0.319473

>  <submitter_institution>  (48) 
nan

>  <ref_mols>  (48) 
mArh-x0626_0_A,mArh-x0465_0_A

>  <N_constrained_atoms>  (48) 
24.0

>  <ref_url>  (48) 
nan

>  <method>  (48) 
nan

>  <comRMSD>  (48) 
0.366778

>  <N_unconstrained_atoms>  (48) 
2.0

>  <∆∆G>  (48) 
-8.306297

>  <runtime>  (48) 
47.16415

>  <generation_date>  (48) 
nan

$$$$
mArh-x0727_0_A-mArh-x0926_0_A
     RDKit          3D

 23 24  0  0  0  0  0  0  0  0999 V2000
    0.1720   11.4710   -5.4930 N   0  0  0  0  0  0  0  0  0  0  0  0
    0.9250   12.3680   -4.6050 C   0  0  1  0  0  0  0  0  0  0  0  0
    0.5360   13.8140   -4.8700 C   0  0  0  0  0  0  0  0  0  0  0  0
    0.7460   11.1570   -6.7060 C   0  0  0  0  0  0  0  0  0  0  0  0
    1.6890   11.7740   -7.1270 O   0  0  0  0  0  0  0  0  0  0  0  0
    0.6710   11.9830   -3.1310 C   0  0  0  0  0  0  0  0  0  0  0  0
    0.1250    9.9740   -7.4460 C   0  0  0  0  0  0  0  0  0  0  0  0
    0.2030   10.9050   -2.7670 O   0  0  0  0  0  0  0  0  0  0  0  0
    1.0520   12.9970   -2.3000 O   0  0  0  0  0  0  0  0  0  0  0  0
   -1.1880   10.3630   -8.1310 C   0  0  0  0  0  0  0  0  0  0  0  0
   -0.2070    8.7950   -6.5180 C   0  0  0  0  0  0  0  0  0  0  0  0
    0.1350   13.4150   -1.2600 C   0  0  0  0  0  0  0  0  0  0  0  0
   -2.0730    9.1480   -7.8940 C   0  0  0  0  0  0  0  0  0  0  0  0
   -1.6920    8.5220   -6.6660 C   0  0  0  0  0  0  0  0  0  0  0  0
   -0.2590   14.8790   -1.3950 C   0  0  0  0  0  0  0  0  0  0  0  0
   -1.0520   15.1640   -0.1190 C   0  0  0  0  0  0  0  0  0  0  0  0
   -2.5680   14.8830   -0.2200 C   0  0  2  0  0  0  0  0  0  0  0  0
   -3.1650   15.5960   -1.3590 N   0  0  0  0  0  0  0  0  0  0  0  0
   -3.3510   15.1640    1.0310 C   0  0  0  0  0  0  0  0  0  0  0  0
   -4.6750   15.3340    0.9810 C   0  0  0  0  0  0  0  0  0  0  0  0
   -4.5660   15.3970   -1.4530 N   0  0  0  0  0  0  0  0  0  0  0  0
   -5.3660   15.2480   -0.3360 C   0  0  0  0  0  0  0  0  0  0  0  0
   -6.5760   15.0500   -0.4130 O   0  0  0  0  0  0  0  0  0  0  0  0
  1  2  1  0
  2  3  1  1
  1  4  1  0
  4  5  2  0
  2  6  1  0
  4  7  1  0
  6  8  2  0
  6  9  1  0
  7 10  1  0
  7 11  1  0
  9 12  1  0
 10 13  1  0
 11 14  1  0
 13 14  1  0
 12 15  1  0
 15 16  1  0
 17 16  1  1
 17 18  1  0
 17 19  1  0
 19 20  2  0
 18 21  1  0
 20 22  1  0
 21 22  1  0
 22 23  2  0
M  END
>  <%Rank>  (49) 
19.047619

>  <N_hits>  (49) 
2

>  <submitter_name>  (49) 
nan

>  <original SMILES>  (49) 
nan

>  <∆G_unbound>  (49) 
1.873365

>  <∆G_bound>  (49) 
-6.943743

>  <regarded>  (49) 
mArh-x0727_0_A,mArh-x0926_0_A

>  <ref_pdb>  (49) 
nan

>  <smiles>  (49) 
C[C@H](NC(=O)C1CCCC1)C(=O)OCCCC1C=CC(=O)NN1

>  <submitter_email>  (49) 
nan

>  <disregarded>  (49) 


>  <LE>  (49) 
-0.383353

>  <submitter_institution>  (49) 
nan

>  <ref_mols>  (49) 
mArh-x0727_0_A,mArh-x0926_0_A

>  <N_constrained_atoms>  (49) 
20.0

>  <ref_url>  (49) 
nan

>  <method>  (49) 
nan

>  <comRMSD>  (49) 
0.305316

>  <N_unconstrained_atoms>  (49) 
3.0

>  <∆∆G>  (49) 
-8.817108

>  <runtime>  (49) 
26.320074

>  <generation_date>  (49) 
nan

$$$$
mArh-x0962_3_A-mArh-5cb5_M_1_M
     RDKit          3D

 48 52  0  0  0  0  0  0  0  0999 V2000
    0.9390   11.3270   -8.9260 N   0  0  0  0  0  0  0  0  0  0  0  0
    0.9550   10.8770   -7.5500 C   0  0  1  0  0  0  0  0  0  0  0  0
    0.5050   11.9180   -6.5040 C   0  0  0  0  0  0  0  0  0  0  0  0
    0.0080    9.7670   -7.5250 C   0  0  0  0  0  0  0  0  0  0  0  0
    1.6140   12.7550   -5.8700 C   0  0  0  0  0  0  0  0  0  0  0  0
    0.2280    8.5700   -8.1510 N   0  0  0  0  0  0  0  0  0  0  0  0
   -1.2210    9.6420   -6.9370 C   0  0  0  0  0  0  0  0  0  0  0  0
    1.2080   13.4440   -4.7010 O   0  0  0  0  0  0  0  0  0  0  0  0
   -0.8570    7.7870   -7.9180 C   0  0  0  0  0  0  0  0  0  0  0  0
   -1.7520    8.4110   -7.1850 N   0  0  0  0  0  0  0  0  0  0  0  0
    0.1560   14.3680   -4.9630 C   0  0  2  0  0  0  0  0  0  0  0  0
    0.5030   15.7170   -4.3630 C   0  0  1  0  0  0  0  0  0  0  0  0
   -1.0780   13.9360   -4.1860 C   0  0  1  0  0  0  0  0  0  0  0  0
    0.2010   16.9430   -5.2240 C   0  0  0  0  0  0  0  0  0  0  0  0
   -1.0100   12.5110   -4.0810 O   0  0  0  0  0  0  0  0  0  0  0  0
   -0.3110   15.8210   -3.1830 O   0  0  0  0  0  0  0  0  0  0  0  0
   -0.9520   14.5500   -2.9150 C   0  0  1  0  0  0  0  0  0  0  0  0
   -1.1990   17.0750   -5.3890 O   0  0  0  0  0  0  0  0  0  0  0  0
   -1.9790   14.8070   -2.0190 N   0  0  0  0  0  0  0  0  0  0  0  0
   -1.7650   18.4130   -6.0480 P   0  0  1  0  0  0  0  0  0  0  0  0
   -1.6240   14.7840   -0.7500 C   0  0  0  0  0  0  0  0  0  0  0  0
   -3.3060   15.0920   -2.1300 C   0  0  0  0  0  0  0  0  0  0  0  0
   -2.7840   18.1350   -7.0750 O   0  0  0  0  0  0  0  0  0  0  0  0
   -2.3420   19.2610   -4.8200 O   0  0  0  0  0  0  0  0  0  0  0  0
   -0.5420   19.3060   -6.4620 O   0  0  0  0  0  0  0  0  0  0  0  0
   -2.8170   15.0750   -0.0770 C   0  0  0  0  0  0  0  0  0  0  0  0
   -0.4210   14.5490   -0.2040 N   0  0  0  0  0  0  0  0  0  0  0  0
   -3.8420   15.2600   -0.9440 N   0  0  0  0  0  0  0  0  0  0  0  0
   -0.1960   19.6790   -7.9470 P   0  0  2  0  0  0  0  0  0  0  0  0
   -2.7570   15.1300    1.3140 C   0  0  0  0  0  0  0  0  0  0  0  0
   -0.4990   14.6220    1.1360 C   0  0  0  0  0  0  0  0  0  0  0  0
   -1.3690   20.3340   -8.5340 O   0  0  0  0  0  0  0  0  0  0  0  0
    0.2320   18.5700   -8.8180 O   0  0  0  0  0  0  0  0  0  0  0  0
    0.8600   20.8680   -7.7950 O   0  0  0  0  0  0  0  0  0  0  0  0
   -3.8610   15.4310    2.1070 N   0  0  0  0  0  0  0  0  0  0  0  0
   -1.5720   14.8860    1.9080 N   0  0  0  0  0  0  0  0  0  0  0  0
   -1.7420   21.6390   -8.1960 C   0  0  0  0  0  0  0  0  0  0  0  0
   -3.0430   21.9050   -8.9210 C   0  0  1  0  0  0  0  0  0  0  0  0
   -4.0400   21.1360   -8.2350 O   0  0  0  0  0  0  0  0  0  0  0  0
   -3.4420   23.3660   -8.8860 C   0  0  1  0  0  0  0  0  0  0  0  0
   -3.6700   23.9940  -10.1220 O   0  0  0  0  0  0  0  0  0  0  0  0
   -4.8180   23.2860   -8.5360 C   0  0  1  0  0  0  0  0  0  0  0  0
   -5.1280   21.9430   -7.8730 C   0  0  2  0  0  0  0  0  0  0  0  0
   -5.2100   24.4200   -7.8850 O   0  0  0  0  0  0  0  0  0  0  0  0
   -5.3090   21.8510   -6.4430 O   0  0  0  0  0  0  0  0  0  0  0  0
   -6.3650   23.9760   -7.7230 C   0  0  0  0  0  0  0  0  0  0  0  0
   -7.4100   24.5440   -8.6560 C   0  0  0  0  0  0  0  0  0  0  0  0
   -6.4240   23.1120   -6.9050 O   0  0  0  0  0  0  0  0  0  0  0  0
  2  1  1  6
  2  3  1  0
  2  4  1  0
  3  5  1  0
  4  6  1  0
  4  7  2  0
  5  8  1  0
  6  9  1  0
  7 10  1  0
  9 10  2  0
 11  8  1  1
 11 12  1  0
 11 13  1  0
 12 14  1  6
 13 15  1  1
 12 16  1  0
 13 17  1  0
 16 17  1  0
 14 18  1  0
 17 19  1  6
 18 20  1  0
 19 21  1  0
 19 22  1  0
 20 23  2  0
 20 24  1  1
 20 25  1  0
 21 26  2  0
 21 27  1  0
 22 28  2  0
 26 28  1  0
 25 29  1  0
 26 30  1  0
 27 31  2  0
 29 32  1  0
 29 33  2  0
 29 34  1  1
 30 35  1  0
 30 36  2  0
 31 36  1  0
 32 37  1  0
 38 37  1  1
 38 39  1  0
 38 40  1  0
 40 41  1  6
 40 42  1  0
 39 43  1  0
 42 43  1  0
 42 44  1  1
 43 45  1  1
 44 46  1  0
 46 47  1  0
 46 48  2  0
M  END
>  <%Rank>  (50) 
19.444444

>  <N_hits>  (50) 
2

>  <submitter_name>  (50) 
nan

>  <original SMILES>  (50) 
nan

>  <∆G_unbound>  (50) 
5.947486

>  <∆G_bound>  (50) 
-11.826073

>  <regarded>  (50) 
mArh-x0962_3_A,mArh-5cb5_M_1_M

>  <ref_pdb>  (50) 
nan

>  <smiles>  (50) 
CC(=O)OC1C(O)OC(CO[P@@](=O)(O)O[P@](=O)(O)OCC2OC(n3cnc4c(N)ncnc43)C(O)C2OCCC(N)c2cnc[nH]2)C1O

>  <submitter_email>  (50) 
nan

>  <disregarded>  (50) 


>  <LE>  (50) 
-0.370282

>  <submitter_institution>  (50) 
nan

>  <ref_mols>  (50) 
mArh-x0962_3_A,mArh-5cb5_M_1_M

>  <N_constrained_atoms>  (50) 
46.0

>  <ref_url>  (50) 
nan

>  <method>  (50) 
nan

>  <comRMSD>  (50) 
0.651802

>  <N_unconstrained_atoms>  (50) 
2.0

>  <∆∆G>  (50) 
-17.773559

>  <runtime>  (50) 
64.737257

>  <generation_date>  (50) 
nan

$$$$
mArh-5cb5_A_0_A-mArh-5cb5_M_1_M
     RDKit          3D

 39 42  0  0  0  0  0  0  0  0999 V2000
   -1.5410   18.2960   -6.1400 P   0  0  1  0  0  0  0  0  0  0  0  0
   -0.1860   17.4770   -6.3690 O   0  0  0  0  0  0  0  0  0  0  0  0
    0.5140   16.8960   -5.2800 C   0  0  0  0  0  0  0  0  0  0  0  0
   -2.7350   17.7590   -6.8260 O   0  0  0  0  0  0  0  0  0  0  0  0
   -1.6790   18.4630   -4.5720 O   0  0  0  0  0  0  0  0  0  0  0  0
   -1.0590   19.7150   -6.5660 O   0  0  0  0  0  0  0  0  0  0  0  0
   -0.3360   19.9830   -7.9380 P   0  0  1  0  0  0  0  0  0  0  0  0
    0.9230   20.7550   -7.7630 O   0  0  0  0  0  0  0  0  0  0  0  0
   -0.1960   18.6050   -8.7390 O   0  0  0  0  0  0  0  0  0  0  0  0
   -1.5090   20.7280   -8.7000 O   0  0  0  0  0  0  0  0  0  0  0  0
   -0.3300   15.7440   -4.7870 C   0  0  2  0  0  0  0  0  0  0  0  0
   -1.7940   21.9400   -8.0410 C   0  0  0  0  0  0  0  0  0  0  0  0
   -0.4710   15.7040   -3.3760 O   0  0  0  0  0  0  0  0  0  0  0  0
    0.0510   14.3020   -5.1020 C   0  0  1  0  0  0  0  0  0  0  0  0
    1.3780   13.9770   -4.7060 O   0  0  0  0  0  0  0  0  0  0  0  0
   -0.9810   13.5910   -4.2070 C   0  0  2  0  0  0  0  0  0  0  0  0
   -1.5390   14.7530   -3.3670 C   0  0  1  0  0  0  0  0  0  0  0  0
   -3.2360   22.1820   -7.6520 C   0  0  1  0  0  0  0  0  0  0  0  0
   -0.4780   12.4110   -3.6390 O   0  0  0  0  0  0  0  0  0  0  0  0
   -3.8860   23.4020   -8.2690 C   0  0  1  0  0  0  0  0  0  0  0  0
   -4.2140   21.1760   -7.8900 O   0  0  0  0  0  0  0  0  0  0  0  0
   -2.1980   14.8800   -2.0950 N   0  0  0  0  0  0  0  0  0  0  0  0
   -4.0430   23.3500   -9.6880 O   0  0  0  0  0  0  0  0  0  0  0  0
   -5.2160   21.8170   -7.0950 C   0  0  1  0  0  0  0  0  0  0  0  0
   -5.2450   23.2990   -7.5870 C   0  0  2  0  0  0  0  0  0  0  0  0
   -1.8020   14.8310   -0.7850 C   0  0  0  0  0  0  0  0  0  0  0  0
   -3.5480   15.1470   -2.1010 C   0  0  0  0  0  0  0  0  0  0  0  0
   -6.4110   21.0760   -7.0880 O   0  0  0  0  0  0  0  0  0  0  0  0
   -6.3670   23.6960   -8.5200 C   0  0  0  0  0  0  0  0  0  0  0  0
   -5.3190   24.1880   -6.4390 O   0  0  0  0  0  0  0  0  0  0  0  0
   -2.9690   15.1100   -0.0820 C   0  0  0  0  0  0  0  0  0  0  0  0
   -0.5970   14.6010   -0.2470 N   0  0  0  0  0  0  0  0  0  0  0  0
   -4.0420   15.2890   -0.9060 N   0  0  0  0  0  0  0  0  0  0  0  0
   -7.2210   22.8630   -8.8100 O   0  0  0  0  0  0  0  0  0  0  0  0
   -6.4250   25.0930   -9.0830 C   0  0  0  0  0  0  0  0  0  0  0  0
   -2.8820   15.1790    1.2930 C   0  0  0  0  0  0  0  0  0  0  0  0
   -0.6380   14.6680    1.0950 C   0  0  0  0  0  0  0  0  0  0  0  0
   -3.9950   15.5100    2.0680 N   0  0  0  0  0  0  0  0  0  0  0  0
   -1.6960   14.9370    1.8840 N   0  0  0  0  0  0  0  0  0  0  0  0
  1  2  1  0
  2  3  1  0
  1  4  2  0
  1  5  1  1
  1  6  1  0
  6  7  1  0
  7  8  2  0
  7  9  1  6
  7 10  1  0
 11  3  1  1
 10 12  1  0
 11 13  1  0
 11 14  1  0
 14 15  1  1
 14 16  1  0
 13 17  1  0
 16 17  1  0
 18 12  1  6
 16 19  1  1
 18 20  1  0
 18 21  1  0
 17 22  1  1
 20 23  1  6
 21 24  1  0
 20 25  1  0
 24 25  1  0
 22 26  1  0
 22 27  1  0
 24 28  1  6
 25 29  1  0
 25 30  1  1
 26 31  2  0
 26 32  1  0
 27 33  2  0
 31 33  1  0
 29 34  2  0
 29 35  1  0
 31 36  1  0
 32 37  2  0
 36 38  1  0
 36 39  2  0
 37 39  1  0
M  END
>  <%Rank>  (51) 
19.84127

>  <N_hits>  (51) 
2

>  <submitter_name>  (51) 
nan

>  <original SMILES>  (51) 
nan

>  <∆G_unbound>  (51) 
7.380215

>  <∆G_bound>  (51) 
-18.241141

>  <regarded>  (51) 
mArh-5cb5_A_0_A,mArh-5cb5_M_1_M

>  <ref_pdb>  (51) 
nan

>  <smiles>  (51) 
CC(=O)C1(O)C(O)OC(CO[P@](=O)(O)O[P@](=O)(O)OCC2OC(n3cnc4c(N)ncnc43)C(O)C2O)C1O

>  <submitter_email>  (51) 
nan

>  <disregarded>  (51) 


>  <LE>  (51) 
-0.656958

>  <submitter_institution>  (51) 
nan

>  <ref_mols>  (51) 
mArh-5cb5_A_0_A,mArh-5cb5_M_1_M

>  <N_constrained_atoms>  (51) 
39.0

>  <ref_url>  (51) 
nan

>  <method>  (51) 
nan

>  <comRMSD>  (51) 
0.767926

>  <N_unconstrained_atoms>  (51) 
0.0

>  <∆∆G>  (51) 
-25.621355

>  <runtime>  (51) 
57.651475

>  <generation_date>  (51) 
nan

$$$$
mArh-5cb5_D_0_D-mArh-5cb5_F_1_F
     RDKit          3D

 39 42  0  0  0  0  0  0  0  0999 V2000
   -1.7310   18.4530   -6.0740 P   0  0  1  0  0  0  0  0  0  0  0  0
   -1.1000   17.1900   -5.3630 O   0  0  0  0  0  0  0  0  0  0  0  0
    0.3170   17.1350   -5.3340 C   0  0  0  0  0  0  0  0  0  0  0  0
   -2.7150   18.1240   -7.1270 O   0  0  0  0  0  0  0  0  0  0  0  0
   -2.3680   19.3570   -4.9170 O   0  0  0  0  0  0  0  0  0  0  0  0
   -0.4950   19.3380   -6.4340 O   0  0  0  0  0  0  0  0  0  0  0  0
   -0.0930   19.9080   -7.8330 P   0  0  1  0  0  0  0  0  0  0  0  0
    1.0990   20.7990   -7.7720 O   0  0  0  0  0  0  0  0  0  0  0  0
    0.0940   18.5980   -8.7660 O   0  0  0  0  0  0  0  0  0  0  0  0
   -1.3860   20.5480   -8.4740 O   0  0  0  0  0  0  0  0  0  0  0  0
    0.7340   15.8550   -4.6430 C   0  0  1  0  0  0  0  0  0  0  0  0
   -1.6260   21.8760   -8.0910 C   0  0  0  0  0  0  0  0  0  0  0  0
    0.2280   15.9030   -3.3010 O   0  0  0  0  0  0  0  0  0  0  0  0
    0.2530   14.5420   -5.2770 C   0  0  1  0  0  0  0  0  0  0  0  0
    1.2130   13.9110   -6.0970 O   0  0  0  0  0  0  0  0  0  0  0  0
   -0.0160   13.6360   -4.1040 C   0  0  1  0  0  0  0  0  0  0  0  0
   -0.1760   14.5780   -2.9130 C   0  0  2  0  0  0  0  0  0  0  0  0
   -3.0870   22.1950   -7.9170 C   0  0  1  0  0  0  0  0  0  0  0  0
   -0.9730   12.6320   -4.3270 O   0  0  0  0  0  0  0  0  0  0  0  0
   -3.6420   23.4570   -8.5360 C   0  0  1  0  0  0  0  0  0  0  0  0
   -4.0050   21.2050   -8.3680 O   0  0  0  0  0  0  0  0  0  0  0  0
   -1.3480   14.7160   -2.0880 N   0  0  0  0  0  0  0  0  0  0  0  0
   -3.8050   23.5030   -9.9390 O   0  0  0  0  0  0  0  0  0  0  0  0
   -5.2630   21.7970   -8.0350 C   0  0  2  0  0  0  0  0  0  0  0  0
   -5.0410   23.2740   -8.0860 C   0  0  1  0  0  0  0  0  0  0  0  0
   -1.3210   14.7280   -0.7480 C   0  0  0  0  0  0  0  0  0  0  0  0
   -2.6700   14.8710   -2.4790 C   0  0  0  0  0  0  0  0  0  0  0  0
   -5.6620   21.3980   -6.7120 O   0  0  0  0  0  0  0  0  0  0  0  0
   -5.4720   23.9310   -6.8610 C   0  0  0  0  0  0  0  0  0  0  0  0
   -2.6340   14.9040   -0.3430 C   0  0  0  0  0  0  0  0  0  0  0  0
   -0.2220   14.6010    0.0010 N   0  0  0  0  0  0  0  0  0  0  0  0
   -3.4800   14.9900   -1.4360 N   0  0  0  0  0  0  0  0  0  0  0  0
   -5.8240   22.9260   -5.9540 O   0  0  0  0  0  0  0  0  0  0  0  0
   -4.5140   24.9330   -6.2200 C   0  0  0  0  0  0  0  0  0  0  0  0
   -6.6750   24.4700   -7.2240 O   0  0  0  0  0  0  0  0  0  0  0  0
   -2.8400   14.9650    1.0430 C   0  0  0  0  0  0  0  0  0  0  0  0
   -0.5400   14.6530    1.2980 C   0  0  0  0  0  0  0  0  0  0  0  0
   -4.0840   15.1680    1.6110 N   0  0  0  0  0  0  0  0  0  0  0  0
   -1.7620   14.8180    1.8530 N   0  0  0  0  0  0  0  0  0  0  0  0
  1  2  1  0
  2  3  1  0
  1  4  2  0
  1  5  1  1
  1  6  1  0
  6  7  1  0
  7  8  2  0
  7  9  1  6
  7 10  1  0
 11  3  1  6
 10 12  1  0
 11 13  1  0
 11 14  1  0
 14 15  1  6
 14 16  1  0
 13 17  1  0
 16 17  1  0
 18 12  1  6
 16 19  1  6
 18 20  1  0
 18 21  1  0
 17 22  1  6
 20 23  1  6
 21 24  1  0
 20 25  1  0
 24 25  1  0
 22 26  1  0
 22 27  1  0
 24 28  1  1
 25 29  1  1
 26 30  2  0
 26 31  1  0
 27 32  2  0
 30 32  1  0
 29 33  1  0
 29 34  1  0
 29 35  1  0
 30 36  1  0
 31 37  2  0
 36 38  1  0
 36 39  2  0
 37 39  1  0
M  END
>  <%Rank>  (52) 
20.238095

>  <N_hits>  (52) 
2

>  <submitter_name>  (52) 
nan

>  <original SMILES>  (52) 
nan

>  <∆G_unbound>  (52) 
5.515544

>  <∆G_bound>  (52) 
-14.525676

>  <regarded>  (52) 
mArh-5cb5_D_0_D,mArh-5cb5_F_1_F

>  <ref_pdb>  (52) 
nan

>  <smiles>  (52) 
CC(O)(O)C1C(O)OC(CO[P@](=O)(O)O[P@](=O)(O)OCC2OC(n3cnc4c(N)ncnc43)C(O)C2O)C1O

>  <submitter_email>  (52) 
nan

>  <disregarded>  (52) 


>  <LE>  (52) 
-0.513877

>  <submitter_institution>  (52) 
nan

>  <ref_mols>  (52) 
mArh-5cb5_D_0_D,mArh-5cb5_F_1_F

>  <N_constrained_atoms>  (52) 
39.0

>  <ref_url>  (52) 
nan

>  <method>  (52) 
nan

>  <comRMSD>  (52) 
0.697773

>  <N_unconstrained_atoms>  (52) 
0.0

>  <∆∆G>  (52) 
-20.041221

>  <runtime>  (52) 
49.232532

>  <generation_date>  (52) 
nan

$$$$
mArh-4iqy_A_0_A-mArh-5cb5_K_0_K
     RDKit          3D

 36 39  0  0  0  0  0  0  0  0999 V2000
   -1.4310   18.0400   -5.9330 P   0  0  2  0  0  0  0  0  0  0  0  0
   -0.0870   17.2590   -6.3000 O   0  0  0  0  0  0  0  0  0  0  0  0
    0.7200   16.6980   -5.2760 C   0  0  0  0  0  0  0  0  0  0  0  0
   -1.9390   17.9170   -4.5620 O   0  0  0  0  0  0  0  0  0  0  0  0
   -2.5410   17.4560   -6.9180 O   0  0  0  0  0  0  0  0  0  0  0  0
   -1.1900   19.4840   -6.4740 O   0  0  0  0  0  0  0  0  0  0  0  0
   -0.3870   19.8350   -7.7870 P   0  0  1  0  0  0  0  0  0  0  0  0
    0.7940   20.7400   -7.6690 O   0  0  0  0  0  0  0  0  0  0  0  0
    0.0110   18.4610   -8.5360 O   0  0  0  0  0  0  0  0  0  0  0  0
   -1.5460   20.2420   -8.7720 O   0  0  0  0  0  0  0  0  0  0  0  0
   -0.0390   15.5550   -4.6630 C   0  0  2  0  0  0  0  0  0  0  0  0
   -2.1230   21.5170   -8.7470 C   0  0  0  0  0  0  0  0  0  0  0  0
   -0.2030   15.6430   -3.2600 O   0  0  0  0  0  0  0  0  0  0  0  0
    0.3520   14.0940   -4.8870 C   0  0  1  0  0  0  0  0  0  0  0  0
    1.6580   13.7720   -4.4440 O   0  0  0  0  0  0  0  0  0  0  0  0
   -0.7220   13.4540   -3.9820 C   0  0  2  0  0  0  0  0  0  0  0  0
   -1.2680   14.6910   -3.2380 C   0  0  1  0  0  0  0  0  0  0  0  0
   -3.1160   21.8270   -7.6700 C   0  0  1  0  0  0  0  0  0  0  0  0
   -0.2670   12.3140   -3.2730 O   0  0  0  0  0  0  0  0  0  0  0  0
   -3.7630   23.2020   -7.8030 C   0  0  1  0  0  0  0  0  0  0  0  0
   -4.2240   20.9200   -7.6870 O   0  0  0  0  0  0  0  0  0  0  0  0
   -1.9830   14.8060   -2.0030 N   0  0  0  0  0  0  0  0  0  0  0  0
   -4.3680   23.5800   -9.0560 O   0  0  0  0  0  0  0  0  0  0  0  0
   -5.1890   21.5730   -6.8760 C   0  0  1  0  0  0  0  0  0  0  0  0
   -4.7540   23.0440   -6.6890 C   0  0  2  0  0  0  0  0  0  0  0  0
   -1.6050   14.7730   -0.6930 C   0  0  0  0  0  0  0  0  0  0  0  0
   -3.3350   15.0210   -2.0380 C   0  0  0  0  0  0  0  0  0  0  0  0
   -6.4360   21.5100   -7.5790 O   0  0  0  0  0  0  0  0  0  0  0  0
   -5.8130   23.9890   -6.7950 O   0  0  0  0  0  0  0  0  0  0  0  0
   -2.7910   14.9960   -0.0150 C   0  0  0  0  0  0  0  0  0  0  0  0
   -0.3930   14.5900   -0.1530 N   0  0  0  0  0  0  0  0  0  0  0  0
   -3.8510   15.1390   -0.8570 N   0  0  0  0  0  0  0  0  0  0  0  0
   -2.7430   15.0510    1.3480 C   0  0  0  0  0  0  0  0  0  0  0  0
   -0.4740   14.6430    1.1920 C   0  0  0  0  0  0  0  0  0  0  0  0
   -3.8800   15.3150    2.0670 N   0  0  0  0  0  0  0  0  0  0  0  0
   -1.5590   14.8530    1.9600 N   0  0  0  0  0  0  0  0  0  0  0  0
  1  2  1  0
  2  3  1  0
  1  4  2  0
  1  5  1  6
  1  6  1  0
  6  7  1  0
  7  8  2  0
  7  9  1  6
  7 10  1  0
 11  3  1  1
 10 12  1  0
 11 13  1  0
 11 14  1  0
 14 15  1  1
 14 16  1  0
 13 17  1  0
 16 17  1  0
 18 12  1  6
 16 19  1  1
 18 20  1  0
 18 21  1  0
 17 22  1  1
 20 23  1  6
 21 24  1  0
 20 25  1  0
 24 25  1  0
 22 26  1  0
 22 27  1  0
 24 28  1  6
 25 29  1  6
 26 30  2  0
 26 31  1  0
 27 32  2  0
 30 32  1  0
 30 33  1  0
 31 34  2  0
 33 35  1  0
 33 36  2  0
 34 36  1  0
M  END
>  <%Rank>  (53) 
20.634921

>  <N_hits>  (53) 
2

>  <submitter_name>  (53) 
nan

>  <original SMILES>  (53) 
nan

>  <∆G_unbound>  (53) 
5.269785

>  <∆G_bound>  (53) 
-14.649506

>  <regarded>  (53) 
mArh-4iqy_A_0_A,mArh-5cb5_K_0_K

>  <ref_pdb>  (53) 
nan

>  <smiles>  (53) 
Nc1ncnc2c1ncn2C1OC(CO[P@](=O)(O)O[P@@](=O)(O)OCC2OC(O)C(O)C2O)C(O)C1O

>  <submitter_email>  (53) 
nan

>  <disregarded>  (53) 


>  <LE>  (53) 
-0.553314

>  <submitter_institution>  (53) 
nan

>  <ref_mols>  (53) 
mArh-4iqy_A_0_A,mArh-5cb5_K_0_K

>  <N_constrained_atoms>  (53) 
36.0

>  <ref_url>  (53) 
nan

>  <method>  (53) 
nan

>  <comRMSD>  (53) 
0.6933

>  <N_unconstrained_atoms>  (53) 
0.0

>  <∆∆G>  (53) 
-19.919291

>  <runtime>  (53) 
48.939463

>  <generation_date>  (53) 
nan

$$$$
mArh-5cb5_R_0_R-mArh-5fud_A_0_A
     RDKit          3D

 36 39  0  0  0  0  0  0  0  0999 V2000
   -1.3520   18.2040   -6.1630 P   0  0  1  0  0  0  0  0  0  0  0  0
    0.1120   17.5520   -6.3460 O   0  0  0  0  0  0  0  0  0  0  0  0
    0.7840   16.8470   -5.3060 C   0  0  0  0  0  0  0  0  0  0  0  0
   -2.4940   17.5210   -6.8390 O   0  0  0  0  0  0  0  0  0  0  0  0
   -1.5650   18.3370   -4.5860 O   0  0  0  0  0  0  0  0  0  0  0  0
   -1.1430   19.6940   -6.5900 O   0  0  0  0  0  0  0  0  0  0  0  0
   -0.3620   20.0370   -7.9220 P   0  0  1  0  0  0  0  0  0  0  0  0
    0.7910   20.9670   -7.8050 O   0  0  0  0  0  0  0  0  0  0  0  0
   -0.0290   18.6630   -8.6830 O   0  0  0  0  0  0  0  0  0  0  0  0
   -1.5680   20.4750   -8.8420 O   0  0  0  0  0  0  0  0  0  0  0  0
   -0.0830   15.7130   -4.7900 C   0  0  2  0  0  0  0  0  0  0  0  0
   -2.0510   21.7850   -8.8300 C   0  0  0  0  0  0  0  0  0  0  0  0
   -0.1690   15.6700   -3.3800 O   0  0  0  0  0  0  0  0  0  0  0  0
    0.1340   14.2310   -5.1420 C   0  0  1  0  0  0  0  0  0  0  0  0
    1.4210   13.7550   -4.7270 O   0  0  0  0  0  0  0  0  0  0  0  0
   -0.9380   13.5770   -4.2380 C   0  0  2  0  0  0  0  0  0  0  0  0
   -1.2950   14.8060   -3.3900 C   0  0  1  0  0  0  0  0  0  0  0  0
   -3.1030   22.0690   -7.8280 C   0  0  1  0  0  0  0  0  0  0  0  0
   -0.4480   12.4590   -3.5300 O   0  0  0  0  0  0  0  0  0  0  0  0
   -3.7500   23.4260   -8.0360 C   0  0  1  0  0  0  0  0  0  0  0  0
   -4.2470   21.2340   -7.9450 O   0  0  0  0  0  0  0  0  0  0  0  0
   -2.0290   14.8740   -2.1650 N   0  0  0  0  0  0  0  0  0  0  0  0
   -4.4430   23.5730   -9.2760 O   0  0  0  0  0  0  0  0  0  0  0  0
   -5.2230   21.8840   -7.1200 C   0  0  2  0  0  0  0  0  0  0  0  0
   -4.6630   23.2810   -6.8450 C   0  0  2  0  0  0  0  0  0  0  0  0
   -1.6320   14.8360   -0.8540 C   0  0  0  0  0  0  0  0  0  0  0  0
   -3.3850   15.0490   -2.1940 C   0  0  0  0  0  0  0  0  0  0  0  0
   -5.3610   21.2130   -5.8790 O   0  0  0  0  0  0  0  0  0  0  0  0
   -5.7170   24.2500   -6.8540 O   0  0  0  0  0  0  0  0  0  0  0  0
   -2.8240   15.0290   -0.1670 C   0  0  0  0  0  0  0  0  0  0  0  0
   -0.4100   14.6810   -0.3140 N   0  0  0  0  0  0  0  0  0  0  0  0
   -3.9010   15.1460   -1.0060 N   0  0  0  0  0  0  0  0  0  0  0  0
   -2.7540   15.0890    1.2110 C   0  0  0  0  0  0  0  0  0  0  0  0
   -0.4800   14.7350    1.0320 C   0  0  0  0  0  0  0  0  0  0  0  0
   -3.8870   15.3330    1.9540 N   0  0  0  0  0  0  0  0  0  0  0  0
   -1.5630   14.9250    1.8150 N   0  0  0  0  0  0  0  0  0  0  0  0
  1  2  1  0
  2  3  1  0
  1  4  2  0
  1  5  1  1
  1  6  1  0
  6  7  1  0
  7  8  2  0
  7  9  1  6
  7 10  1  0
 11  3  1  1
 10 12  1  0
 11 13  1  0
 11 14  1  0
 14 15  1  1
 14 16  1  0
 13 17  1  0
 16 17  1  0
 18 12  1  6
 16 19  1  1
 18 20  1  0
 18 21  1  0
 17 22  1  1
 20 23  1  6
 21 24  1  0
 20 25  1  0
 24 25  1  0
 22 26  1  0
 22 27  1  0
 24 28  1  1
 25 29  1  6
 26 30  2  0
 26 31  1  0
 27 32  2  0
 30 32  1  0
 30 33  1  0
 31 34  2  0
 33 35  1  0
 33 36  2  0
 34 36  1  0
M  END
>  <%Rank>  (54) 
21.031746

>  <N_hits>  (54) 
2

>  <submitter_name>  (54) 
nan

>  <original SMILES>  (54) 
nan

>  <∆G_unbound>  (54) 
4.299768

>  <∆G_bound>  (54) 
-15.666577

>  <regarded>  (54) 
mArh-5cb5_R_0_R,mArh-5fud_A_0_A

>  <ref_pdb>  (54) 
nan

>  <smiles>  (54) 
Nc1ncnc2c1ncn2C1OC(CO[P@@](=O)(O)O[P@@](=O)(O)OCC2OC(O)C(O)C2O)C(O)C1O

>  <submitter_email>  (54) 
nan

>  <disregarded>  (54) 


>  <LE>  (54) 
-0.554621

>  <submitter_institution>  (54) 
nan

>  <ref_mols>  (54) 
mArh-5cb5_R_0_R,mArh-5fud_A_0_A

>  <N_constrained_atoms>  (54) 
36.0

>  <ref_url>  (54) 
nan

>  <method>  (54) 
nan

>  <comRMSD>  (54) 
0.70091

>  <N_unconstrained_atoms>  (54) 
0.0

>  <∆∆G>  (54) 
-19.966345

>  <runtime>  (54) 
55.205466

>  <generation_date>  (54) 
nan

$$$$
mArh-5cms_Q_16_Q-mArh-4gvw_0_A
     RDKit          3D

 44 48  0  0  0  0  0  0  0  0999 V2000
   -1.9130   17.7560   -5.7820 P   0  0  1  0  0  0  0  0  0  0  0  0
   -0.6220   17.4340   -4.8760 O   0  0  0  0  0  0  0  0  0  0  0  0
    0.4600   16.6490   -5.3390 C   0  0  0  0  0  0  0  0  0  0  0  0
   -2.9700   16.7080   -5.8180 O   0  0  0  0  0  0  0  0  0  0  0  0
   -2.3420   19.0980   -5.0440 O   0  0  0  0  0  0  0  0  0  0  0  0
   -1.5710   18.2630   -7.2330 O   0  0  0  0  0  0  0  0  0  0  0  0
   -0.6220   19.4570   -7.6420 P   0  0  1  0  0  0  0  0  0  0  0  0
    0.8200   19.1240   -7.5290 O   0  0  0  0  0  0  0  0  0  0  0  0
   -1.0290   19.5830   -9.1450 O   0  0  0  0  0  0  0  0  0  0  0  0
   -1.2420   20.9680   -7.1380 N   0  0  0  0  0  0  0  0  0  0  0  0
    0.6410   15.3770   -4.5000 C   0  0  1  0  0  0  0  0  0  0  0  0
   -0.6260   21.8790   -7.9350 C   0  0  0  0  0  0  0  0  0  0  0  0
   -2.6740   21.0640   -6.8150 C   0  0  0  0  0  0  0  0  0  0  0  0
   -0.0900   15.5770   -3.2880 O   0  0  0  0  0  0  0  0  0  0  0  0
    0.1480   14.0500   -5.1130 C   0  0  1  0  0  0  0  0  0  0  0  0
    1.2630   13.1660   -5.2690 O   0  0  0  0  0  0  0  0  0  0  0  0
    0.5860   22.1110   -7.7960 O   0  0  0  0  0  0  0  0  0  0  0  0
   -0.8120   13.4300   -4.0920 C   0  0  1  0  0  0  0  0  0  0  0  0
   -0.6410   14.3260   -2.8730 C   0  0  2  0  0  0  0  0  0  0  0  0
   -1.4620   22.5800   -9.0300 C   0  0  1  0  0  0  0  0  0  0  0  0
   -3.3310   22.2900   -7.3410 N   0  0  0  0  0  0  0  0  0  0  0  0
   -2.1270   13.3130   -4.6390 O   0  0  0  0  0  0  0  0  0  0  0  0
   -0.7790   23.6450   -9.8710 C   0  0  1  0  0  0  0  0  0  0  0  0
   -2.2380   21.8190   -9.9380 O   0  0  0  0  0  0  0  0  0  0  0  0
   -1.7790   14.6290   -2.0360 N   0  0  0  0  0  0  0  0  0  0  0  0
   -3.7480   23.2930   -6.3710 C   0  0  0  0  0  0  0  0  0  0  0  0
   -4.2010   22.1910   -8.5470 C   0  0  0  0  0  0  0  0  0  0  0  0
    0.4020   23.2080  -10.5560 O   0  0  0  0  0  0  0  0  0  0  0  0
   -2.3200   22.5610  -11.1730 C   0  0  2  0  0  0  0  0  0  0  0  0
   -1.9400   23.8670  -10.8380 C   0  0  2  0  0  0  0  0  0  0  0  0
   -1.6440   14.6670   -0.6940 C   0  0  0  0  0  0  0  0  0  0  0  0
   -3.0870   14.9240   -2.3360 C   0  0  0  0  0  0  0  0  0  0  0  0
   -5.2260   23.6010   -6.3870 C   0  0  0  0  0  0  0  0  0  0  0  0
   -5.6960   22.5430   -8.3860 C   0  0  0  0  0  0  0  0  0  0  0  0
   -3.6540   22.5490  -11.6670 O   0  0  0  0  0  0  0  0  0  0  0  0
   -1.6920   24.7030  -11.9670 O   0  0  0  0  0  0  0  0  0  0  0  0
   -2.9050   14.9990   -0.2050 C   0  0  0  0  0  0  0  0  0  0  0  0
   -0.4940   14.4290    0.0010 N   0  0  0  0  0  0  0  0  0  0  0  0
   -3.8020   15.1580   -1.2410 N   0  0  0  0  0  0  0  0  0  0  0  0
   -5.8860   23.7240   -7.6270 O   0  0  0  0  0  0  0  0  0  0  0  0
   -3.0000   15.1040    1.1830 C   0  0  0  0  0  0  0  0  0  0  0  0
   -0.7270   14.5450    1.3120 C   0  0  0  0  0  0  0  0  0  0  0  0
   -4.1720   15.4490    1.8310 N   0  0  0  0  0  0  0  0  0  0  0  0
   -1.8800   14.8520    1.9160 N   0  0  0  0  0  0  0  0  0  0  0  0
  1  2  1  0
  2  3  1  0
  1  4  2  0
  1  5  1  1
  1  6  1  0
  6  7  1  0
  7  8  2  0
  7  9  1  6
  7 10  1  0
 11  3  1  6
 10 12  1  0
 10 13  1  0
 11 14  1  0
 11 15  1  0
 15 16  1  1
 12 17  2  0
 15 18  1  0
 14 19  1  0
 18 19  1  0
 20 12  1  6
 13 21  1  0
 18 22  1  6
 20 23  1  0
 20 24  1  0
 19 25  1  6
 21 26  1  0
 21 27  1  0
 23 28  1  6
 24 29  1  0
 23 30  1  0
 29 30  1  0
 25 31  1  0
 25 32  1  0
 26 33  1  0
 27 34  1  0
 29 35  1  1
 30 36  1  6
 31 37  2  0
 31 38  1  0
 32 39  2  0
 37 39  1  0
 33 40  1  0
 34 40  1  0
 37 41  1  0
 38 42  2  0
 41 43  1  0
 41 44  2  0
 42 44  1  0
M  END
>  <%Rank>  (55) 
21.428571

>  <N_hits>  (55) 
2

>  <submitter_name>  (55) 
nan

>  <original SMILES>  (55) 
nan

>  <∆G_unbound>  (55) 
7.524886

>  <∆G_bound>  (55) 
-11.399592

>  <regarded>  (55) 
mArh-5cms_Q_16_Q,mArh-4gvw_0_A

>  <ref_pdb>  (55) 
nan

>  <smiles>  (55) 
Nc1ncnc2c1ncn2C1OC(CO[P@@](=O)(O)O[P@@](=O)(O)N(CN2CCOCC2)C(=O)C2OC(O)C(O)C2O)C(O)C1O

>  <submitter_email>  (55) 
nan

>  <disregarded>  (55) 


>  <LE>  (55) 
-0.430102

>  <submitter_institution>  (55) 
nan

>  <ref_mols>  (55) 
mArh-5cms_Q_16_Q,mArh-4gvw_0_A

>  <N_constrained_atoms>  (55) 
44.0

>  <ref_url>  (55) 
nan

>  <method>  (55) 
nan

>  <comRMSD>  (55) 
0.713255

>  <N_unconstrained_atoms>  (55) 
0.0

>  <∆∆G>  (55) 
-18.924478

>  <runtime>  (55) 
52.406825

>  <generation_date>  (55) 
nan

$$$$
mArh-x1012_0_A-mArh-x0290_0_A
     RDKit          3D

 25 26  0  0  0  0  0  0  0  0999 V2000
   -0.1590   18.3330   -4.6640 N   0  0  0  0  0  0  0  0  0  0  0  0
   -1.1480   17.2630   -4.8160 C   0  0  0  0  0  0  0  0  0  0  0  0
   -2.3360   17.5600   -4.7940 O   0  0  0  0  0  0  0  0  0  0  0  0
   -0.6630   15.9840   -4.9450 N   0  0  0  0  0  0  0  0  0  0  0  0
   -1.5040   14.8590   -4.5850 C   0  0  0  0  0  0  0  0  0  0  0  0
    0.8170   15.7770   -4.8380 C   0  0  0  0  0  0  0  0  0  0  0  0
   -0.9290   14.3640   -3.2900 C   0  0  1  0  0  0  0  0  0  0  0  0
    1.3480   14.5930   -3.9640 C   0  0  0  0  0  0  0  0  0  0  0  0
   -1.9100   13.6720   -2.3850 C   0  0  0  0  0  0  0  0  0  0  0  0
    0.2820   13.5440   -3.6480 C   0  0  1  0  0  0  0  0  0  0  0  0
    0.5680   12.5250   -2.5440 C   0  0  0  0  0  0  0  0  0  0  0  0
   -1.7580   14.0660   -0.9440 C   0  0  0  0  0  0  0  0  0  0  0  0
    0.5390   11.2530   -2.9810 O   0  0  0  0  0  0  0  0  0  0  0  0
    0.7850   12.7380   -1.3660 O   0  0  0  0  0  0  0  0  0  0  0  0
   -0.3930   14.1940   -0.2380 C   0  0  0  0  0  0  0  0  0  0  0  0
   -2.9260   14.3070   -0.2710 C   0  0  0  0  0  0  0  0  0  0  0  0
   -0.6180   14.5840    1.2170 C   0  0  0  0  0  0  0  0  0  0  0  0
   -2.9400   14.6570    1.0450 C   0  0  0  0  0  0  0  0  0  0  0  0
   -4.1620   14.8810    1.6410 N   0  0  0  0  0  0  0  0  0  0  0  0
   -1.8220   14.7940    1.7920 N   0  0  0  0  0  0  0  0  0  0  0  0
   -5.3590   14.6570    1.0060 C   0  0  0  0  0  0  0  0  0  0  0  0
   -5.5780   14.8360   -0.1910 O   0  0  0  0  0  0  0  0  0  0  0  0
   -6.4730   14.1200    1.9030 C   0  0  0  0  0  0  0  0  0  0  0  0
   -7.7080   13.7790    1.1450 N   0  0  0  0  0  0  0  0  0  0  0  0
   -8.5470   14.9450    0.8740 C   0  0  0  0  0  0  0  0  0  0  0  0
  1  2  1  0
  2  3  2  0
  2  4  1  0
  4  5  1  0
  4  6  1  0
  5  7  1  0
  6  8  1  0
  7  9  1  6
  7 10  1  0
  8 10  1  0
 10 11  1  1
  9 12  1  0
 11 13  1  0
 11 14  2  0
 12 15  2  0
 12 16  1  0
 15 17  1  0
 16 18  2  0
 18 19  1  0
 17 20  2  0
 18 20  1  0
 19 21  1  0
 21 22  2  0
 21 23  1  0
 23 24  1  0
 24 25  1  0
M  END
>  <%Rank>  (56) 
21.825397

>  <N_hits>  (56) 
2

>  <submitter_name>  (56) 
nan

>  <original SMILES>  (56) 
nan

>  <∆G_unbound>  (56) 
1.061025

>  <∆G_bound>  (56) 
-7.9221

>  <regarded>  (56) 
mArh-x1012_0_A,mArh-x0290_0_A

>  <ref_pdb>  (56) 
nan

>  <smiles>  (56) 
CNCC(=O)Nc1cc(CC2CN(C(N)=O)CCC2C(=O)O)ccn1

>  <submitter_email>  (56) 
nan

>  <disregarded>  (56) 


>  <LE>  (56) 
-0.359325

>  <submitter_institution>  (56) 
nan

>  <ref_mols>  (56) 
mArh-x1012_0_A,mArh-x0290_0_A

>  <N_constrained_atoms>  (56) 
25.0

>  <ref_url>  (56) 
nan

>  <method>  (56) 
nan

>  <comRMSD>  (56) 
0.4817

>  <N_unconstrained_atoms>  (56) 
0.0

>  <∆∆G>  (56) 
-8.983125

>  <runtime>  (56) 
31.129984

>  <generation_date>  (56) 
nan

$$$$
mArh-3gqe_A_0_A-mArh-x0371_0_A
     RDKit          3D

 31 33  0  0  0  0  0  0  0  0999 V2000
   -2.4020   18.5660   -6.5600 C   0  0  0  0  0  0  0  0  0  0  0  0
   -2.2250   20.0120   -6.3640 N   0  0  0  0  0  0  0  0  0  0  0  0
   -3.3510   20.8620   -6.8180 C   0  0  0  0  0  0  0  0  0  0  0  0
   -2.1550   17.8570   -5.2610 C   0  0  0  0  0  0  0  0  0  0  0  0
   -0.9350   20.3900   -6.9390 C   0  0  0  0  0  0  0  0  0  0  0  0
   -2.3160   16.6220   -5.0780 N   0  0  0  0  0  0  0  0  0  0  0  0
   -1.7570   18.6740   -4.2960 O   0  0  0  0  0  0  0  0  0  0  0  0
   -3.2510   22.3840   -6.9860 C   0  0  0  0  0  0  0  0  0  0  0  0
   -0.7800   20.0800   -8.4120 C   0  0  0  0  0  0  0  0  0  0  0  0
   -2.0290   16.0440   -3.7810 C   0  0  0  0  0  0  0  0  0  0  0  0
   -4.1570   22.8280   -7.9950 O   0  0  0  0  0  0  0  0  0  0  0  0
   -0.5330   18.7000   -8.6460 O   0  0  0  0  0  0  0  0  0  0  0  0
   -3.2100   15.1690   -3.4420 C   0  0  0  0  0  0  0  0  0  0  0  0
   -3.7900   15.1030   -2.0500 C   0  0  0  0  0  0  0  0  0  0  0  0
   -2.9940   15.2480   -0.8860 C   0  0  0  0  0  0  0  0  0  0  0  0
   -5.1500   14.8750   -1.9210 C   0  0  0  0  0  0  0  0  0  0  0  0
   -5.7180   14.7620   -0.6660 C   0  0  0  0  0  0  0  0  0  0  0  0
   -3.5530   15.1420    0.4090 C   0  0  0  0  0  0  0  0  0  0  0  0
   -7.0230   14.5230   -0.3580 N   0  0  0  0  0  0  0  0  0  0  0  0
   -4.9270   14.8860    0.4650 C   0  0  0  0  0  0  0  0  0  0  0  0
   -5.8100   14.6930    1.4990 N   0  0  0  0  0  0  0  0  0  0  0  0
   -7.0580   14.4760    0.9520 C   0  0  0  0  0  0  0  0  0  0  0  0
   -8.2600   14.2200    1.7620 C   0  0  0  0  0  0  0  0  0  0  0  0
   -7.9540   14.5820    3.1080 N   0  0  0  0  0  0  0  0  0  0  0  0
   -8.6760   15.5790    3.7110 C   0  0  0  0  0  0  0  0  0  0  0  0
   -9.3510   16.3830    3.0690 O   0  0  0  0  0  0  0  0  0  0  0  0
   -8.5820   15.5880    5.1460 C   0  0  0  0  0  0  0  0  0  0  0  0
   -7.9910   14.5220    5.7670 O   0  0  0  0  0  0  0  0  0  0  0  0
   -8.9970   16.5110    6.0880 C   0  0  0  0  0  0  0  0  0  0  0  0
   -8.6350   15.9740    7.3510 C   0  0  0  0  0  0  0  0  0  0  0  0
   -8.0260   14.7670    7.0970 C   0  0  0  0  0  0  0  0  0  0  0  0
  1  2  1  0
  2  3  1  0
  1  4  1  0
  2  5  1  0
  4  6  2  3
  4  7  1  0
  3  8  1  0
  5  9  1  0
  6 10  1  0
  8 11  1  0
  9 12  1  0
 10 13  1  0
 13 14  1  0
 14 15  2  0
 14 16  1  0
 16 17  2  0
 15 18  1  0
 17 19  1  0
 17 20  1  0
 18 20  2  0
 20 21  1  0
 19 22  2  0
 21 22  1  0
 22 23  1  0
 23 24  1  0
 24 25  1  0
 25 26  2  0
 25 27  1  0
 27 28  1  0
 27 29  2  0
 29 30  1  0
 28 31  1  0
 30 31  2  0
M  END
>  <%Rank>  (57) 
22.222222

>  <N_hits>  (57) 
2

>  <submitter_name>  (57) 
nan

>  <original SMILES>  (57) 
nan

>  <∆G_unbound>  (57) 
1.576184

>  <∆G_bound>  (57) 
-11.232531

>  <regarded>  (57) 
mArh-3gqe_A_0_A,mArh-x0371_0_A

>  <ref_pdb>  (57) 
nan

>  <smiles>  (57) 
O=C(NCc1nc2cc(CCN=C(O)CN(CCO)CCO)ccc2[nH]1)c1ccco1

>  <submitter_email>  (57) 
nan

>  <disregarded>  (57) 


>  <LE>  (57) 
-0.413184

>  <submitter_institution>  (57) 
nan

>  <ref_mols>  (57) 
mArh-3gqe_A_0_A,mArh-x0371_0_A

>  <N_constrained_atoms>  (57) 
29.0

>  <ref_url>  (57) 
nan

>  <method>  (57) 
nan

>  <comRMSD>  (57) 
0.532069

>  <N_unconstrained_atoms>  (57) 
2.0

>  <∆∆G>  (57) 
-12.808716

>  <runtime>  (57) 
40.537951

>  <generation_date>  (57) 
nan

$$$$
mArh-5cb5_D_0_D-mArh-x0524_0_A
     RDKit          3D

 55 60  0  0  0  0  0  0  0  0999 V2000
   -1.6470   18.3800   -6.2440 P   0  0  1  0  0  0  0  0  0  0  0  0
   -0.2590   17.6420   -6.4730 O   0  0  0  0  0  0  0  0  0  0  0  0
    0.4980   17.1650   -5.3790 C   0  0  0  0  0  0  0  0  0  0  0  0
   -2.8240   17.7310   -6.8530 O   0  0  0  0  0  0  0  0  0  0  0  0
   -1.7700   18.6000   -4.6650 O   0  0  0  0  0  0  0  0  0  0  0  0
   -1.2980   19.8140   -6.7080 O   0  0  0  0  0  0  0  0  0  0  0  0
   -0.3720   20.1100   -7.9330 P   0  0  1  0  0  0  0  0  0  0  0  0
    0.9600   20.7060   -7.6620 O   0  0  0  0  0  0  0  0  0  0  0  0
   -0.2690   18.7300   -8.7460 O   0  0  0  0  0  0  0  0  0  0  0  0
   -1.3780   20.9770   -8.7940 O   0  0  0  0  0  0  0  0  0  0  0  0
   -0.1710   15.9460   -4.7730 C   0  0  2  0  0  0  0  0  0  0  0  0
   -2.0370   22.0400   -8.1010 C   0  0  0  0  0  0  0  0  0  0  0  0
    0.1230   15.8730   -3.3740 O   0  0  0  0  0  0  0  0  0  0  0  0
    0.1700   14.5390   -5.2460 C   0  0  1  0  0  0  0  0  0  0  0  0
    1.5340   14.1630   -5.3660 O   0  0  0  0  0  0  0  0  0  0  0  0
   -0.6120   13.7390   -4.2120 C   0  0  2  0  0  0  0  0  0  0  0  0
   -0.3610   14.5540   -2.9590 C   0  0  2  0  0  0  0  0  0  0  0  0
   -3.4170   22.2710   -8.7130 C   0  0  2  0  0  0  0  0  0  0  0  0
   -0.0140   12.4510   -4.0700 O   0  0  0  0  0  0  0  0  0  0  0  0
   -3.9350   23.4610   -8.3730 C   0  0  1  0  0  0  0  0  0  0  0  0
   -4.3180   21.2540   -8.2190 O   0  0  0  0  0  0  0  0  0  0  0  0
   -1.5110   14.7450   -2.1080 N   0  0  0  0  0  0  0  0  0  0  0  0
   -4.7170   23.9940   -9.4380 O   0  0  0  0  0  0  0  0  0  0  0  0
    0.2930   11.7260   -5.2540 C   0  0  0  0  0  0  0  0  0  0  0  0
   -5.2760   21.9360   -7.4160 C   0  0  2  0  0  0  0  0  0  0  0  0
   -4.7110   23.1200   -7.2620 C   0  0  2  0  0  0  0  0  0  0  0  0
   -1.4140   14.7700   -0.7670 C   0  0  0  0  0  0  0  0  0  0  0  0
   -2.8340   14.9290   -2.4390 C   0  0  0  0  0  0  0  0  0  0  0  0
   -5.4700   21.2990   -6.1610 O   0  0  0  0  0  0  0  0  0  0  0  0
   -5.7230   24.0830   -6.9920 O   0  0  0  0  0  0  0  0  0  0  0  0
   -0.7390   11.7820   -6.3700 C   0  0  0  0  0  0  0  0  0  0  0  0
   -2.6980   14.9790   -0.3080 C   0  0  0  0  0  0  0  0  0  0  0  0
   -0.2890   14.6240   -0.0680 N   0  0  0  0  0  0  0  0  0  0  0  0
   -3.5880   15.0770   -1.3640 N   0  0  0  0  0  0  0  0  0  0  0  0
   -0.4110   10.7430   -7.3390 N   0  0  0  0  0  0  0  0  0  0  0  0
   -2.8500   15.0540    1.0780 C   0  0  0  0  0  0  0  0  0  0  0  0
   -0.5550   14.6960    1.2420 C   0  0  0  0  0  0  0  0  0  0  0  0
   -4.1050   15.2940    1.6640 N   0  0  0  0  0  0  0  0  0  0  0  0
   -0.8220    9.5310   -7.2590 C   0  0  0  0  0  0  0  0  0  0  0  0
   -1.7450   14.8930    1.8440 N   0  0  0  0  0  0  0  0  0  0  0  0
   -0.4780    8.5640   -8.1770 N   0  0  0  0  0  0  0  0  0  0  0  0
   -1.7300    9.0510   -6.1390 C   0  0  0  0  0  0  0  0  0  0  0  0
    0.6030    8.5410   -9.0810 C   0  0  0  0  0  0  0  0  0  0  0  0
    1.7530    7.7660   -8.9050 C   0  0  0  0  0  0  0  0  0  0  0  0
    0.5360    9.3390  -10.2380 C   0  0  0  0  0  0  0  0  0  0  0  0
    2.7960    7.7770   -9.8400 C   0  0  0  0  0  0  0  0  0  0  0  0
    1.5740    9.3570  -11.1820 C   0  0  0  0  0  0  0  0  0  0  0  0
    2.7140    8.5710  -10.9870 C   0  0  0  0  0  0  0  0  0  0  0  0
    3.7630    8.5880  -11.9500 N   0  0  0  0  0  0  0  0  0  0  0  0
    3.9740    9.5170  -13.0040 C   0  0  0  0  0  0  0  0  0  0  0  0
    3.1850   10.6620  -13.2010 C   0  0  0  0  0  0  0  0  0  0  0  0
    5.0300    9.2720  -13.8870 C   0  0  0  0  0  0  0  0  0  0  0  0
    3.4590   11.5290  -14.2600 C   0  0  0  0  0  0  0  0  0  0  0  0
    5.3030   10.1330  -14.9420 C   0  0  0  0  0  0  0  0  0  0  0  0
    4.5140   11.2680  -15.1310 C   0  0  0  0  0  0  0  0  0  0  0  0
  1  2  1  0
  2  3  1  0
  1  4  2  0
  1  5  1  1
  1  6  1  0
  6  7  1  0
  7  8  2  0
  7  9  1  6
  7 10  1  0
 11  3  1  6
 10 12  1  0
 11 13  1  0
 11 14  1  0
 14 15  1  1
 14 16  1  0
 13 17  1  0
 16 17  1  0
 18 12  1  1
 16 19  1  1
 18 20  1  0
 18 21  1  0
 17 22  1  6
 20 23  1  6
 19 24  1  0
 21 25  1  0
 20 26  1  0
 25 26  1  0
 22 27  1  0
 22 28  1  0
 25 29  1  1
 26 30  1  6
 24 31  1  0
 27 32  2  0
 27 33  1  0
 28 34  2  0
 32 34  1  0
 31 35  1  0
 32 36  1  0
 33 37  2  0
 36 38  1  0
 35 39  2  3
 36 40  2  0
 37 40  1  0
 39 41  1  0
 39 42  1  0
 41 43  1  0
 43 44  2  0
 43 45  1  0
 44 46  1  0
 45 47  2  0
 46 48  2  0
 47 48  1  0
 48 49  1  0
 49 50  1  0
 50 51  2  0
 50 52  1  0
 51 53  1  0
 52 54  2  0
 53 55  2  0
 54 55  1  0
M  END
>  <%Rank>  (58) 
22.619048

>  <N_hits>  (58) 
2

>  <submitter_name>  (58) 
nan

>  <original SMILES>  (58) 
nan

>  <∆G_unbound>  (58) 
7.107519

>  <∆G_bound>  (58) 
-23.73638

>  <regarded>  (58) 
mArh-5cb5_D_0_D,mArh-x0524_0_A

>  <ref_pdb>  (58) 
nan

>  <smiles>  (58) 
CC(=NCCOC1C(O)C(CO[P@@](=O)(O)O[P@@](=O)(O)OCC2OC(O)C(O)C2O)OC1n1cnc2c(N)ncnc21)Nc1ccc(Nc2ccccc2)cc1

>  <submitter_email>  (58) 
nan

>  <disregarded>  (58) 


>  <LE>  (58) 
-0.560798

>  <submitter_institution>  (58) 
nan

>  <ref_mols>  (58) 
mArh-5cb5_D_0_D,mArh-x0524_0_A

>  <N_constrained_atoms>  (58) 
53.0

>  <ref_url>  (58) 
nan

>  <method>  (58) 
nan

>  <comRMSD>  (58) 
0.823489

>  <N_unconstrained_atoms>  (58) 
2.0

>  <∆∆G>  (58) 
-30.843899

>  <runtime>  (58) 
50.18293

>  <generation_date>  (58) 
nan

$$$$
mArh-5cb5_O_0_O-mArh-5cb5_H_0_H
     RDKit          3D

 36 39  0  0  0  0  0  0  0  0999 V2000
   -1.4440   18.4850   -5.9730 P   0  0  1  0  0  0  0  0  0  0  0  0
   -0.5940   17.7460   -4.8740 O   0  0  0  0  0  0  0  0  0  0  0  0
    0.4960   16.9250   -5.2340 C   0  0  0  0  0  0  0  0  0  0  0  0
   -2.2820   17.6750   -6.9180 O   0  0  0  0  0  0  0  0  0  0  0  0
   -2.3420   19.4520   -5.0720 O   0  0  0  0  0  0  0  0  0  0  0  0
   -0.3020   19.4060   -6.4980 O   0  0  0  0  0  0  0  0  0  0  0  0
   -0.2210   19.9440   -7.9410 P   0  0  1  0  0  0  0  0  0  0  0  0
    0.7530   21.0430   -8.0840 O   0  0  0  0  0  0  0  0  0  0  0  0
    0.0550   18.6270   -8.8160 O   0  0  0  0  0  0  0  0  0  0  0  0
   -1.7300   20.2760   -8.2650 O   0  0  0  0  0  0  0  0  0  0  0  0
   -0.0580   15.6080   -4.8080 C   0  0  2  0  0  0  0  0  0  0  0  0
   -2.0910   21.5420   -8.7380 C   0  0  0  0  0  0  0  0  0  0  0  0
   -0.0980   15.5780   -3.4050 O   0  0  0  0  0  0  0  0  0  0  0  0
    0.3160   14.1910   -5.1910 C   0  0  1  0  0  0  0  0  0  0  0  0
    1.6430   13.8430   -4.7840 O   0  0  0  0  0  0  0  0  0  0  0  0
   -0.7060   13.4730   -4.2640 C   0  0  2  0  0  0  0  0  0  0  0  0
   -1.1840   14.7010   -3.4400 C   0  0  1  0  0  0  0  0  0  0  0  0
   -3.2850   22.0210   -7.9790 C   0  0  1  0  0  0  0  0  0  0  0  0
   -0.1040   12.4290   -3.5380 O   0  0  0  0  0  0  0  0  0  0  0  0
   -3.6750   23.4850   -8.0430 C   0  0  1  0  0  0  0  0  0  0  0  0
   -4.4890   21.4130   -8.4400 O   0  0  0  0  0  0  0  0  0  0  0  0
   -1.9630   14.8080   -2.2350 N   0  0  0  0  0  0  0  0  0  0  0  0
   -4.2160   23.9790   -9.2600 O   0  0  0  0  0  0  0  0  0  0  0  0
   -5.4870   22.1040   -7.6850 C   0  0  2  0  0  0  0  0  0  0  0  0
   -4.7630   23.2740   -7.0160 C   0  0  2  0  0  0  0  0  0  0  0  0
   -1.6190   14.8110   -0.9060 C   0  0  0  0  0  0  0  0  0  0  0  0
   -3.3230   14.9770   -2.3110 C   0  0  0  0  0  0  0  0  0  0  0  0
   -6.0260   21.2720   -6.6750 O   0  0  0  0  0  0  0  0  0  0  0  0
   -5.6510   24.3920   -6.9010 O   0  0  0  0  0  0  0  0  0  0  0  0
   -2.8350   15.0070   -0.2580 C   0  0  0  0  0  0  0  0  0  0  0  0
   -0.4150   14.6790   -0.3170 N   0  0  0  0  0  0  0  0  0  0  0  0
   -3.8810   15.1000   -1.1400 N   0  0  0  0  0  0  0  0  0  0  0  0
   -2.8130   15.0900    1.1290 C   0  0  0  0  0  0  0  0  0  0  0  0
   -0.5260   14.7570    1.0250 C   0  0  0  0  0  0  0  0  0  0  0  0
   -3.9680   15.3250    1.8470 N   0  0  0  0  0  0  0  0  0  0  0  0
   -1.6340   14.9490    1.7720 N   0  0  0  0  0  0  0  0  0  0  0  0
  1  2  1  0
  2  3  1  0
  1  4  2  0
  1  5  1  1
  1  6  1  0
  6  7  1  0
  7  8  2  0
  7  9  1  6
  7 10  1  0
 11  3  1  1
 10 12  1  0
 11 13  1  0
 11 14  1  0
 14 15  1  1
 14 16  1  0
 13 17  1  0
 16 17  1  0
 18 12  1  6
 16 19  1  1
 18 20  1  0
 18 21  1  0
 17 22  1  1
 20 23  1  6
 21 24  1  0
 20 25  1  0
 24 25  1  0
 22 26  1  0
 22 27  1  0
 24 28  1  1
 25 29  1  6
 26 30  2  0
 26 31  1  0
 27 32  2  0
 30 32  1  0
 30 33  1  0
 31 34  2  0
 33 35  1  0
 33 36  2  0
 34 36  1  0
M  END
>  <%Rank>  (59) 
23.015873

>  <N_hits>  (59) 
2

>  <submitter_name>  (59) 
nan

>  <original SMILES>  (59) 
nan

>  <∆G_unbound>  (59) 
4.299768

>  <∆G_bound>  (59) 
-16.919671

>  <regarded>  (59) 
mArh-5cb5_O_0_O,mArh-5cb5_H_0_H

>  <ref_pdb>  (59) 
nan

>  <smiles>  (59) 
Nc1ncnc2c1ncn2C1OC(CO[P@@](=O)(O)O[P@@](=O)(O)OCC2OC(O)C(O)C2O)C(O)C1O

>  <submitter_email>  (59) 
nan

>  <disregarded>  (59) 


>  <LE>  (59) 
-0.589429

>  <submitter_institution>  (59) 
nan

>  <ref_mols>  (59) 
mArh-5cb5_O_0_O,mArh-5cb5_H_0_H

>  <N_constrained_atoms>  (59) 
36.0

>  <ref_url>  (59) 
nan

>  <method>  (59) 
nan

>  <comRMSD>  (59) 
0.732952

>  <N_unconstrained_atoms>  (59) 
0.0

>  <∆∆G>  (59) 
-21.219439

>  <runtime>  (59) 
48.340085

>  <generation_date>  (59) 
nan

$$$$
mArh-5cb5_E_0_E-mArh-5cb5_Q_0_Q
     RDKit          3D

 36 39  0  0  0  0  0  0  0  0999 V2000
   -1.5060   18.2640   -6.1800 P   0  0  1  0  0  0  0  0  0  0  0  0
   -0.0900   17.5300   -6.3760 O   0  0  0  0  0  0  0  0  0  0  0  0
    0.5620   16.8140   -5.3370 C   0  0  0  0  0  0  0  0  0  0  0  0
   -2.6590   17.6690   -6.9100 O   0  0  0  0  0  0  0  0  0  0  0  0
   -1.7360   18.3640   -4.6090 O   0  0  0  0  0  0  0  0  0  0  0  0
   -1.1580   19.7380   -6.5440 O   0  0  0  0  0  0  0  0  0  0  0  0
   -0.3520   19.9980   -7.8700 P   0  0  1  0  0  0  0  0  0  0  0  0
    0.8050   20.9250   -7.7950 O   0  0  0  0  0  0  0  0  0  0  0  0
   -0.0150   18.5680   -8.5200 O   0  0  0  0  0  0  0  0  0  0  0  0
   -1.5590   20.3990   -8.7970 O   0  0  0  0  0  0  0  0  0  0  0  0
   -0.3340   15.6850   -4.8630 C   0  0  2  0  0  0  0  0  0  0  0  0
   -2.0230   21.7160   -8.8390 C   0  0  0  0  0  0  0  0  0  0  0  0
   -0.4620   15.6800   -3.4630 O   0  0  0  0  0  0  0  0  0  0  0  0
   -0.0960   14.1930   -5.1640 C   0  0  1  0  0  0  0  0  0  0  0  0
    1.2020   13.7680   -4.7330 O   0  0  0  0  0  0  0  0  0  0  0  0
   -1.1410   13.5360   -4.2290 C   0  0  2  0  0  0  0  0  0  0  0  0
   -1.5630   14.7890   -3.4430 C   0  0  1  0  0  0  0  0  0  0  0  0
   -3.1470   22.0820   -7.9320 C   0  0  1  0  0  0  0  0  0  0  0  0
   -0.5850   12.4760   -3.4790 O   0  0  0  0  0  0  0  0  0  0  0  0
   -3.7210   23.4340   -8.3300 C   0  0  1  0  0  0  0  0  0  0  0  0
   -4.2750   21.2300   -8.0890 O   0  0  0  0  0  0  0  0  0  0  0  0
   -2.2470   14.8930   -2.1870 N   0  0  0  0  0  0  0  0  0  0  0  0
   -4.0340   23.5880   -9.7090 O   0  0  0  0  0  0  0  0  0  0  0  0
   -5.3890   21.9460   -7.5440 C   0  0  2  0  0  0  0  0  0  0  0  0
   -4.9850   23.4230   -7.5120 C   0  0  2  0  0  0  0  0  0  0  0  0
   -1.7920   14.8350   -0.8950 C   0  0  0  0  0  0  0  0  0  0  0  0
   -3.5930   15.1300   -2.1490 C   0  0  0  0  0  0  0  0  0  0  0  0
   -5.6490   21.5190   -6.2120 O   0  0  0  0  0  0  0  0  0  0  0  0
   -5.9310   24.2170   -8.2390 O   0  0  0  0  0  0  0  0  0  0  0  0
   -2.9360   15.0810   -0.1460 C   0  0  0  0  0  0  0  0  0  0  0  0
   -0.5500   14.6220   -0.4170 N   0  0  0  0  0  0  0  0  0  0  0  0
   -4.0470   15.2490   -0.9380 N   0  0  0  0  0  0  0  0  0  0  0  0
   -2.7880   15.1320    1.2300 C   0  0  0  0  0  0  0  0  0  0  0  0
   -0.5440   14.6740    0.9320 C   0  0  0  0  0  0  0  0  0  0  0  0
   -3.8530   15.4230    2.0520 N   0  0  0  0  0  0  0  0  0  0  0  0
   -1.5720   14.9080    1.7720 N   0  0  0  0  0  0  0  0  0  0  0  0
  1  2  1  0
  2  3  1  0
  1  4  2  0
  1  5  1  1
  1  6  1  0
  6  7  1  0
  7  8  2  0
  7  9  1  6
  7 10  1  0
 11  3  1  1
 10 12  1  0
 11 13  1  0
 11 14  1  0
 14 15  1  1
 14 16  1  0
 13 17  1  0
 16 17  1  0
 18 12  1  6
 16 19  1  1
 18 20  1  0
 18 21  1  0
 17 22  1  1
 20 23  1  6
 21 24  1  0
 20 25  1  0
 24 25  1  0
 22 26  1  0
 22 27  1  0
 24 28  1  1
 25 29  1  6
 26 30  2  0
 26 31  1  0
 27 32  2  0
 30 32  1  0
 30 33  1  0
 31 34  2  0
 33 35  1  0
 33 36  2  0
 34 36  1  0
M  END
>  <%Rank>  (60) 
23.412698

>  <N_hits>  (60) 
2

>  <submitter_name>  (60) 
nan

>  <original SMILES>  (60) 
nan

>  <∆G_unbound>  (60) 
4.299768

>  <∆G_bound>  (60) 
-14.380271

>  <regarded>  (60) 
mArh-5cb5_E_0_E,mArh-5cb5_Q_0_Q

>  <ref_pdb>  (60) 
nan

>  <smiles>  (60) 
Nc1ncnc2c1ncn2C1OC(CO[P@@](=O)(O)O[P@@](=O)(O)OCC2OC(O)C(O)C2O)C(O)C1O

>  <submitter_email>  (60) 
nan

>  <disregarded>  (60) 


>  <LE>  (60) 
-0.51889

>  <submitter_institution>  (60) 
nan

>  <ref_mols>  (60) 
mArh-5cb5_E_0_E,mArh-5cb5_Q_0_Q

>  <N_constrained_atoms>  (60) 
36.0

>  <ref_url>  (60) 
nan

>  <method>  (60) 
nan

>  <comRMSD>  (60) 
0.6995

>  <N_unconstrained_atoms>  (60) 
0.0

>  <∆∆G>  (60) 
-18.680039

>  <runtime>  (60) 
51.635216

>  <generation_date>  (60) 
nan

$$$$
mArh-3q6z_0_A-mArh-2bfq_0_A
     RDKit          3D

 42 46  0  0  0  0  0  0  0  0999 V2000
   -1.3760   18.2380   -5.7340 P   0  0  2  0  0  0  0  0  0  0  0  0
   -0.7780   16.8030   -5.4040 O   0  0  0  0  0  0  0  0  0  0  0  0
    0.4920   16.7560   -4.7720 C   0  0  0  0  0  0  0  0  0  0  0  0
   -2.0240   18.9830   -4.6380 O   0  0  0  0  0  0  0  0  0  0  0  0
   -2.3860   17.9110   -6.9390 O   0  0  0  0  0  0  0  0  0  0  0  0
   -0.1700   19.0000   -6.3940 O   0  0  0  0  0  0  0  0  0  0  0  0
   -0.1740   19.6040   -7.8330 P   0  0  2  0  0  0  0  0  0  0  0  0
    0.1750   18.6100   -8.8640 O   0  0  0  0  0  0  0  0  0  0  0  0
    0.7510   20.8970   -7.6970 O   0  0  0  0  0  0  0  0  0  0  0  0
   -1.6490   20.1730   -7.9700 O   0  0  0  0  0  0  0  0  0  0  0  0
    0.5800   15.5280   -3.8730 C   0  0  1  0  0  0  0  0  0  0  0  0
   -1.9310   21.5420   -7.7940 C   0  0  0  0  0  0  0  0  0  0  0  0
   -0.5790   15.5460   -2.9970 O   0  0  0  0  0  0  0  0  0  0  0  0
    0.5520   14.1820   -4.6160 C   0  0  1  0  0  0  0  0  0  0  0  0
    1.3950   13.2040   -3.9780 O   0  0  0  0  0  0  0  0  0  0  0  0
   -0.8950   13.7340   -4.4620 C   0  0  2  0  0  0  0  0  0  0  0  0
   -1.2510   14.2690   -3.0560 C   0  0  2  0  0  0  0  0  0  0  0  0
   -3.3030   21.9090   -8.3250 C   0  0  2  0  0  0  0  0  0  0  0  0
   -0.9430   12.3050   -4.5310 O   0  0  0  0  0  0  0  0  0  0  0  0
   -3.8310   23.2930   -7.9520 C   0  0  1  0  0  0  0  0  0  0  0  0
   -4.2410   20.9390   -7.8400 O   0  0  0  0  0  0  0  0  0  0  0  0
   -2.7220   14.2590   -2.7490 N   0  0  0  0  0  0  0  0  0  0  0  0
   -4.7220   23.8590   -8.9150 O   0  0  0  0  0  0  0  0  0  0  0  0
   -5.1360   21.6010   -6.9510 C   0  0  1  0  0  0  0  0  0  0  0  0
   -4.5280   22.9730   -6.6360 C   0  0  2  0  0  0  0  0  0  0  0  0
   -3.2980   14.9670   -1.5450 C   0  0  1  0  0  0  0  0  0  0  0  0
   -3.5750   14.7170   -3.8250 C   0  0  0  0  0  0  0  0  0  0  0  0
   -6.3790   21.6590   -7.6160 O   0  0  0  0  0  0  0  0  0  0  0  0
   -5.5270   23.9810   -6.3960 O   0  0  0  0  0  0  0  0  0  0  0  0
   -4.8220   14.9640   -1.8510 C   0  0  1  0  0  0  0  0  0  0  0  0
   -2.8260   14.2900   -0.1830 C   0  0  2  0  0  0  0  0  0  0  0  0
   -4.9110   14.5350   -3.2710 N   0  0  0  0  0  0  0  0  0  0  0  0
   -5.7020   14.1510   -0.8730 C   0  0  2  0  0  0  0  0  0  0  0  0
   -3.8810   13.2720    0.2840 C   0  0  0  0  0  0  0  0  0  0  0  0
   -2.6810   15.1350    1.1110 C   0  0  2  0  0  0  0  0  0  0  0  0
   -1.4400   13.6910   -0.4710 C   0  0  0  0  0  0  0  0  0  0  0  0
   -6.9560   14.7900   -0.5640 N   0  0  0  0  0  0  0  0  0  0  0  0
   -3.6860   16.1580    1.3540 N   0  0  0  0  0  0  0  0  0  0  0  0
   -5.1390   13.9930    0.4350 N   0  0  0  0  0  0  0  0  0  0  0  0
   -1.3740   15.7080    1.1950 N   0  0  0  0  0  0  0  0  0  0  0  0
   -0.6100   13.5550    0.7060 N   0  0  0  0  0  0  0  0  0  0  0  0
   -0.2440   14.8170    1.2300 C   0  0  0  0  0  0  0  0  0  0  0  0
  1  2  1  0
  2  3  1  0
  1  4  2  0
  1  5  1  6
  1  6  1  0
  6  7  1  0
  7  8  2  0
  7  9  1  1
  7 10  1  0
 11  3  1  6
 10 12  1  0
 11 13  1  0
 11 14  1  0
 14 15  1  1
 14 16  1  0
 13 17  1  0
 16 17  1  0
 18 12  1  1
 16 19  1  1
 18 20  1  0
 18 21  1  0
 17 22  1  6
 20 23  1  6
 21 24  1  0
 20 25  1  0
 24 25  1  0
 26 22  1  6
 22 27  1  0
 24 28  1  6
 25 29  1  6
 26 30  1  0
 26 31  1  0
 27 32  1  0
 30 32  1  6
 30 33  1  0
 31 34  1  1
 31 35  1  0
 31 36  1  0
 33 37  1  1
 35 38  1  6
 33 39  1  0
 34 39  1  0
 35 40  1  0
 36 41  1  0
 40 42  1  0
 41 42  1  0
M  END
>  <%Rank>  (61) 
23.809524

>  <N_hits>  (61) 
2

>  <submitter_name>  (61) 
nan

>  <original SMILES>  (61) 
nan

>  <∆G_unbound>  (61) 
5.535445

>  <∆G_bound>  (61) 
-13.917238

>  <regarded>  (61) 
mArh-3q6z_0_A,mArh-2bfq_0_A

>  <ref_pdb>  (61) 
nan

>  <smiles>  (61) 
NC1NCC2(CNCNC2N)C2C1NCN2C1OC(CO[P@](=O)(O)O[P@](=O)(O)OCC2OC(O)C(O)C2O)C(O)C1O

>  <submitter_email>  (61) 
nan

>  <disregarded>  (61) 


>  <LE>  (61) 
-0.463159

>  <submitter_institution>  (61) 
nan

>  <ref_mols>  (61) 
mArh-3q6z_0_A,mArh-2bfq_0_A

>  <N_constrained_atoms>  (61) 
42.0

>  <ref_url>  (61) 
nan

>  <method>  (61) 
nan

>  <comRMSD>  (61) 
0.727976

>  <N_unconstrained_atoms>  (61) 
0.0

>  <∆∆G>  (61) 
-19.452683

>  <runtime>  (61) 
50.99215

>  <generation_date>  (61) 
nan

$$$$
mArh-3ew5_A_0_A-mArh-x0380_0_B
     RDKit          3D

 28 28  0  0  0  0  0  0  0  0999 V2000
   -0.2180   20.0200   -7.7110 P   0  0  0  0  0  0  0  0  0  0  0  0
   -1.8000   20.3130   -7.6420 O   0  0  0  0  0  0  0  0  0  0  0  0
   -2.2510   21.5880   -8.1320 C   0  0  0  0  0  0  0  0  0  0  0  0
    0.6750   21.1890   -7.9140 O   0  0  0  0  0  0  0  0  0  0  0  0
    0.0100   18.8320   -8.7640 O   0  0  0  0  0  0  0  0  0  0  0  0
    0.0970   19.1780   -6.4060 O   0  0  0  0  0  0  0  0  0  0  0  0
   -3.4230   22.1150   -7.2780 C   0  0  2  0  0  0  0  0  0  0  0  0
   -4.7780   22.1630   -8.0290 C   0  0  1  0  0  0  0  0  0  0  0  0
   -3.1210   23.4420   -6.8170 O   0  0  0  0  0  0  0  0  0  0  0  0
   -5.8130   21.7100   -7.1310 O   0  0  0  0  0  0  0  0  0  0  0  0
   -5.2030   23.5590   -8.4850 C   0  0  0  0  0  0  0  0  0  0  0  0
   -6.6490   23.7120   -8.9630 C   0  0  0  0  0  0  0  0  0  0  0  0
   -6.7940   24.4350  -10.3080 C   0  0  0  0  0  0  0  0  0  0  0  0
   -7.4640   25.8230  -10.2640 C   0  0  0  0  0  0  0  0  0  0  0  0
   -6.6900   26.8200  -11.1330 C   0  0  0  0  0  0  0  0  0  0  0  0
   -7.0790   28.3040  -10.9850 C   0  0  0  0  0  0  0  0  0  0  0  0
   -6.9100   28.9610  -12.3260 C   0  0  0  0  0  0  0  0  0  0  0  0
   -5.6450   29.2190  -12.8860 C   0  0  0  0  0  0  0  0  0  0  0  0
   -8.0650   29.3130  -13.0330 C   0  0  0  0  0  0  0  0  0  0  0  0
   -4.4100   28.8520  -12.1260 C   0  0  0  0  0  0  0  0  0  0  0  0
   -7.9680   29.9060  -14.2820 C   0  0  0  0  0  0  0  0  0  0  0  0
   -5.5440   29.8150  -14.1550 C   0  0  0  0  0  0  0  0  0  0  0  0
   -4.2500   30.0390  -14.6770 N   0  0  0  0  0  0  0  0  0  0  0  0
   -6.7140   30.1530  -14.8380 C   0  0  0  0  0  0  0  0  0  0  0  0
   -3.8280   31.0850  -15.4650 C   0  0  0  0  0  0  0  0  0  0  0  0
   -4.4780   32.0660  -15.7910 O   0  0  0  0  0  0  0  0  0  0  0  0
   -2.4010   30.9030  -15.9480 C   0  0  0  0  0  0  0  0  0  0  0  0
   -2.2590   31.4590  -17.3030 N   0  0  0  0  0  0  0  0  0  0  0  0
  1  2  1  0
  2  3  1  0
  1  4  2  0
  1  5  1  0
  1  6  1  0
  3  7  1  0
  7  8  1  0
  7  9  1  6
  8 10  1  1
  8 11  1  0
 11 12  1  0
 12 13  1  0
 13 14  1  0
 14 15  1  0
 15 16  1  0
 16 17  1  0
 17 18  2  0
 17 19  1  0
 18 20  1  0
 19 21  2  0
 18 22  1  0
 22 23  1  0
 21 24  1  0
 22 24  2  0
 23 25  1  0
 25 26  2  0
 25 27  1  0
 27 28  1  0
M  END
>  <%Rank>  (62) 
24.206349

>  <N_hits>  (62) 
2

>  <submitter_name>  (62) 
nan

>  <original SMILES>  (62) 
nan

>  <∆G_unbound>  (62) 
0.185436

>  <∆G_bound>  (62) 
-12.882943

>  <regarded>  (62) 
mArh-3ew5_A_0_A,mArh-x0380_0_B

>  <ref_pdb>  (62) 
nan

>  <smiles>  (62) 
Cc1c(CCCCCCC(O)[C@H](O)COP(=O)(O)O)cccc1NC(=O)CN

>  <submitter_email>  (62) 
nan

>  <disregarded>  (62) 


>  <LE>  (62) 
-0.466728

>  <submitter_institution>  (62) 
nan

>  <ref_mols>  (62) 
mArh-3ew5_A_0_A,mArh-x0380_0_B

>  <N_constrained_atoms>  (62) 
23.0

>  <ref_url>  (62) 
nan

>  <method>  (62) 
nan

>  <comRMSD>  (62) 
0.410121

>  <N_unconstrained_atoms>  (62) 
5.0

>  <∆∆G>  (62) 
-13.068379

>  <runtime>  (62) 
40.820431

>  <generation_date>  (62) 
nan

$$$$
mArh-5cb5_F_1_F-mArh-2bfq_0_A
     RDKit          3D

 40 43  0  0  0  0  0  0  0  0999 V2000
   -1.6670   18.3880   -5.9390 P   0  0  1  0  0  0  0  0  0  0  0  0
   -0.8860   17.3520   -4.9940 O   0  0  0  0  0  0  0  0  0  0  0  0
    0.4910   17.0780   -5.1930 C   0  0  0  0  0  0  0  0  0  0  0  0
   -2.6420   17.7730   -6.8610 O   0  0  0  0  0  0  0  0  0  0  0  0
   -2.3220   19.3510   -4.8570 O   0  0  0  0  0  0  0  0  0  0  0  0
   -0.6800   19.4600   -6.5120 O   0  0  0  0  0  0  0  0  0  0  0  0
   -0.2570   19.8140   -7.9810 P   0  0  2  0  0  0  0  0  0  0  0  0
   -1.4160   20.6460   -8.7390 O   0  0  0  0  0  0  0  0  0  0  0  0
    0.1980   18.6600   -8.7920 O   0  0  0  0  0  0  0  0  0  0  0  0
    0.8560   20.9410   -7.8030 O   0  0  0  0  0  0  0  0  0  0  0  0
    0.8820   15.7630   -4.4980 C   0  0  1  0  0  0  0  0  0  0  0  0
   -2.3620   21.5500   -8.1450 C   0  0  1  0  0  0  0  0  0  0  0  0
    0.3470   15.7360   -3.1550 O   0  0  0  0  0  0  0  0  0  0  0  0
    0.3890   14.4800   -5.1810 C   0  0  1  0  0  0  0  0  0  0  0  0
    1.3610   13.4300   -5.1770 O   0  0  0  0  0  0  0  0  0  0  0  0
   -1.7700   22.9120   -7.8550 C   0  0  0  0  0  0  0  0  0  0  0  0
   -0.8550   14.1160   -4.3900 C   0  0  2  0  0  0  0  0  0  0  0  0
   -0.3800   14.4990   -3.0010 C   0  0  2  0  0  0  0  0  0  0  0  0
   -3.5940   21.6400   -9.0700 C   0  0  1  0  0  0  0  0  0  0  0  0
   -1.1660   12.7220   -4.5280 O   0  0  0  0  0  0  0  0  0  0  0  0
   -4.5890   20.8320   -8.4180 O   0  0  0  0  0  0  0  0  0  0  0  0
   -4.4050   22.8670   -9.4970 C   0  0  2  0  0  0  0  0  0  0  0  0
   -1.4390   14.6700   -2.0440 N   0  0  0  0  0  0  0  0  0  0  0  0
   -3.7920   24.0230   -9.9740 O   0  0  0  0  0  0  0  0  0  0  0  0
   -1.2170   14.6860   -0.7040 C   0  0  0  0  0  0  0  0  0  0  0  0
   -5.2030   23.1160   -8.2910 C   0  0  1  0  0  0  0  0  0  0  0  0
   -5.5680   21.6870   -7.8520 C   0  0  2  0  0  0  0  0  0  0  0  0
   -2.7780   14.8460   -2.2580 C   0  0  0  0  0  0  0  0  0  0  0  0
   -4.3350   23.7920   -7.4230 O   0  0  0  0  0  0  0  0  0  0  0  0
   -5.5500   21.5290   -6.4320 O   0  0  0  0  0  0  0  0  0  0  0  0
   -2.4620   14.8890   -0.1510 C   0  0  0  0  0  0  0  0  0  0  0  0
   -0.0420   14.5420   -0.0790 N   0  0  0  0  0  0  0  0  0  0  0  0
   -3.4300   14.9840   -1.1240 N   0  0  0  0  0  0  0  0  0  0  0  0
   -5.0000   24.3490   -6.4660 C   0  0  0  0  0  0  0  0  0  0  0  0
   -2.5190   14.9660    1.2320 C   0  0  0  0  0  0  0  0  0  0  0  0
   -0.2480   14.6170    1.2550 C   0  0  0  0  0  0  0  0  0  0  0  0
   -4.5780   25.7470   -6.2620 C   0  0  0  0  0  0  0  0  0  0  0  0
   -5.7990   23.7070   -5.8910 O   0  0  0  0  0  0  0  0  0  0  0  0
   -3.6940   15.2060    1.8990 N   0  0  0  0  0  0  0  0  0  0  0  0
   -1.3860   14.8090    1.9250 N   0  0  0  0  0  0  0  0  0  0  0  0
  1  2  1  0
  2  3  1  0
  1  4  2  0
  1  5  1  1
  1  6  1  0
  6  7  1  0
  7  8  1  0
  7  9  2  0
  7 10  1  1
 11  3  1  6
  8 12  1  0
 11 13  1  0
 11 14  1  0
 14 15  1  1
 12 16  1  6
 14 17  1  0
 13 18  1  0
 17 18  1  0
 12 19  1  0
 17 20  1  1
 19 21  1  1
 19 22  1  0
 18 23  1  1
 22 24  1  1
 23 25  1  0
 22 26  1  0
 21 27  1  0
 26 27  1  0
 23 28  1  0
 26 29  1  1
 27 30  1  1
 25 31  2  0
 25 32  1  0
 28 33  2  0
 31 33  1  0
 29 34  1  0
 31 35  1  0
 32 36  2  0
 34 37  1  0
 34 38  2  0
 35 39  1  0
 35 40  2  0
 36 40  1  0
M  END
>  <%Rank>  (63) 
24.603175

>  <N_hits>  (63) 
2

>  <submitter_name>  (63) 
nan

>  <original SMILES>  (63) 
nan

>  <∆G_unbound>  (63) 
9.18036

>  <∆G_bound>  (63) 
-15.321412

>  <regarded>  (63) 
mArh-5cb5_F_1_F,mArh-2bfq_0_A

>  <ref_pdb>  (63) 
nan

>  <smiles>  (63) 
CC(=O)OC1C(O)OC(C(C)O[P@@](=O)(O)O[P@](=O)(O)OCC2OC(n3cnc4c(N)ncnc43)C(O)C2O)C1O

>  <submitter_email>  (63) 
nan

>  <disregarded>  (63) 


>  <LE>  (63) 
-0.612544

>  <submitter_institution>  (63) 
nan

>  <ref_mols>  (63) 
mArh-5cb5_F_1_F,mArh-2bfq_0_A

>  <N_constrained_atoms>  (63) 
40.0

>  <ref_url>  (63) 
nan

>  <method>  (63) 
nan

>  <comRMSD>  (63) 
0.79276

>  <N_unconstrained_atoms>  (63) 
0.0

>  <∆∆G>  (63) 
-24.501771

>  <runtime>  (63) 
96.09414

>  <generation_date>  (63) 
nan

$$$$
mArh-5cb5_E_0_E-mArh-6mea_A_0_A
     RDKit          3D

 36 39  0  0  0  0  0  0  0  0999 V2000
   -1.5140   18.2750   -6.1860 P   0  0  1  0  0  0  0  0  0  0  0  0
   -0.0890   17.5560   -6.3750 O   0  0  0  0  0  0  0  0  0  0  0  0
    0.5610   16.8310   -5.3420 C   0  0  0  0  0  0  0  0  0  0  0  0
   -2.6600   17.6520   -6.9040 O   0  0  0  0  0  0  0  0  0  0  0  0
   -1.7360   18.4010   -4.6170 O   0  0  0  0  0  0  0  0  0  0  0  0
   -1.1950   19.7510   -6.5780 O   0  0  0  0  0  0  0  0  0  0  0  0
   -0.3610   20.0020   -7.8890 P   0  0  1  0  0  0  0  0  0  0  0  0
    0.8060   20.9160   -7.7910 O   0  0  0  0  0  0  0  0  0  0  0  0
   -0.0270   18.5680   -8.5260 O   0  0  0  0  0  0  0  0  0  0  0  0
   -1.5380   20.4170   -8.8500 O   0  0  0  0  0  0  0  0  0  0  0  0
   -0.3370   15.6960   -4.8690 C   0  0  2  0  0  0  0  0  0  0  0  0
   -1.9980   21.7390   -8.8790 C   0  0  0  0  0  0  0  0  0  0  0  0
   -0.4670   15.6890   -3.4680 O   0  0  0  0  0  0  0  0  0  0  0  0
   -0.0920   14.2040   -5.1650 C   0  0  1  0  0  0  0  0  0  0  0  0
    1.2050   13.7830   -4.7310 O   0  0  0  0  0  0  0  0  0  0  0  0
   -1.1380   13.5430   -4.2340 C   0  0  2  0  0  0  0  0  0  0  0  0
   -1.5640   14.7930   -3.4470 C   0  0  1  0  0  0  0  0  0  0  0  0
   -3.1260   22.0880   -7.9660 C   0  0  1  0  0  0  0  0  0  0  0  0
   -0.5820   12.4860   -3.4810 O   0  0  0  0  0  0  0  0  0  0  0  0
   -3.7100   23.4410   -8.3510 C   0  0  1  0  0  0  0  0  0  0  0  0
   -4.2530   21.2360   -8.1180 O   0  0  0  0  0  0  0  0  0  0  0  0
   -2.2440   14.8930   -2.1900 N   0  0  0  0  0  0  0  0  0  0  0  0
   -4.0370   23.6010   -9.7250 O   0  0  0  0  0  0  0  0  0  0  0  0
   -5.3660   21.9470   -7.5630 C   0  0  2  0  0  0  0  0  0  0  0  0
   -4.9630   23.4210   -7.5130 C   0  0  2  0  0  0  0  0  0  0  0  0
   -1.7900   14.8330   -0.8990 C   0  0  0  0  0  0  0  0  0  0  0  0
   -3.5930   15.1290   -2.1540 C   0  0  0  0  0  0  0  0  0  0  0  0
   -5.6320   21.5090   -6.2350 O   0  0  0  0  0  0  0  0  0  0  0  0
   -5.9200   24.2220   -8.2130 O   0  0  0  0  0  0  0  0  0  0  0  0
   -2.9320   15.0740   -0.1480 C   0  0  0  0  0  0  0  0  0  0  0  0
   -0.5480   14.6210   -0.4210 N   0  0  0  0  0  0  0  0  0  0  0  0
   -4.0450   15.2430   -0.9400 N   0  0  0  0  0  0  0  0  0  0  0  0
   -2.7850   15.1230    1.2300 C   0  0  0  0  0  0  0  0  0  0  0  0
   -0.5410   14.6680    0.9280 C   0  0  0  0  0  0  0  0  0  0  0  0
   -3.8550   15.4120    2.0470 N   0  0  0  0  0  0  0  0  0  0  0  0
   -1.5690   14.8980    1.7690 N   0  0  0  0  0  0  0  0  0  0  0  0
  1  2  1  0
  2  3  1  0
  1  4  2  0
  1  5  1  1
  1  6  1  0
  6  7  1  0
  7  8  2  0
  7  9  1  6
  7 10  1  0
 11  3  1  1
 10 12  1  0
 11 13  1  0
 11 14  1  0
 14 15  1  1
 14 16  1  0
 13 17  1  0
 16 17  1  0
 18 12  1  6
 16 19  1  1
 18 20  1  0
 18 21  1  0
 17 22  1  1
 20 23  1  6
 21 24  1  0
 20 25  1  0
 24 25  1  0
 22 26  1  0
 22 27  1  0
 24 28  1  1
 25 29  1  6
 26 30  2  0
 26 31  1  0
 27 32  2  0
 30 32  1  0
 30 33  1  0
 31 34  2  0
 33 35  1  0
 33 36  2  0
 34 36  1  0
M  END
>  <%Rank>  (64) 
25.0

>  <N_hits>  (64) 
2

>  <submitter_name>  (64) 
nan

>  <original SMILES>  (64) 
nan

>  <∆G_unbound>  (64) 
4.299768

>  <∆G_bound>  (64) 
-14.394186

>  <regarded>  (64) 
mArh-5cb5_E_0_E,mArh-6mea_A_0_A

>  <ref_pdb>  (64) 
nan

>  <smiles>  (64) 
Nc1ncnc2c1ncn2C1OC(CO[P@@](=O)(O)O[P@@](=O)(O)OCC2OC(O)C(O)C2O)C(O)C1O

>  <submitter_email>  (64) 
nan

>  <disregarded>  (64) 


>  <LE>  (64) 
-0.519277

>  <submitter_institution>  (64) 
nan

>  <ref_mols>  (64) 
mArh-5cb5_E_0_E,mArh-6mea_A_0_A

>  <N_constrained_atoms>  (64) 
36.0

>  <ref_url>  (64) 
nan

>  <method>  (64) 
nan

>  <comRMSD>  (64) 
0.715332

>  <N_unconstrained_atoms>  (64) 
0.0

>  <∆∆G>  (64) 
-18.693954

>  <runtime>  (64) 
48.892786

>  <generation_date>  (64) 
nan

$$$$
mArh-x0628_0_A-mArh-5l9k_B_0_B
     RDKit          3D

 46 51  0  0  0  0  0  0  0  0999 V2000
   -0.7590    8.9800   -7.4090 C   0  0  0  0  0  0  0  0  0  0  0  0
   -0.9010   10.1260   -6.5170 C   0  0  0  0  0  0  0  0  0  0  0  0
   -2.1050   10.4880   -5.9490 N   0  0  0  0  0  0  0  0  0  0  0  0
    0.0790   10.9200   -6.1620 N   0  0  0  0  0  0  0  0  0  0  0  0
   -0.5210   11.8120   -5.3330 N   0  0  0  0  0  0  0  0  0  0  0  0
   -1.8060   11.5510   -5.2230 C   0  0  0  0  0  0  0  0  0  0  0  0
   -2.7140   12.4180   -4.3560 C   0  0  0  0  0  0  0  0  0  0  0  0
    0.0750   12.9130   -4.6330 C   0  0  1  0  0  0  0  0  0  0  0  0
    1.4170   13.0550   -4.4040 C   0  0  0  0  0  0  0  0  0  0  0  0
   -0.9060   14.0220   -4.8930 C   0  0  1  0  0  0  0  0  0  0  0  0
   -1.8570   13.5570   -3.7770 C   0  0  1  0  0  0  0  0  0  0  0  0
    1.6860   12.4870   -3.1480 C   0  0  0  0  0  0  0  0  0  0  0  0
   -0.8890   15.5340   -4.7150 C   0  0  2  0  0  0  0  0  0  0  0  0
   -2.3860   14.8900   -3.2750 C   0  0  2  0  0  0  0  0  0  0  0  0
    1.2030   11.4150   -2.8040 O   0  0  0  0  0  0  0  0  0  0  0  0
    2.4530   13.1980   -2.3090 O   0  0  0  0  0  0  0  0  0  0  0  0
    0.2210   16.4610   -5.1810 C   0  0  0  0  0  0  0  0  0  0  0  0
   -1.1700   15.6480   -3.3360 O   0  0  0  0  0  0  0  0  0  0  0  0
   -2.9910   15.0590   -1.9730 N   0  0  0  0  0  0  0  0  0  0  0  0
   -0.3460   17.2940   -6.1970 O   0  0  0  0  0  0  0  0  0  0  0  0
   -2.4270   14.9700   -0.7140 C   0  0  0  0  0  0  0  0  0  0  0  0
   -4.3050   15.3790   -1.8110 C   0  0  0  0  0  0  0  0  0  0  0  0
   -1.6730   18.1510   -5.9010 P   0  0  2  0  0  0  0  0  0  0  0  0
   -3.4790   15.2710    0.1360 C   0  0  0  0  0  0  0  0  0  0  0  0
   -1.1600   14.6790   -0.3550 N   0  0  0  0  0  0  0  0  0  0  0  0
   -4.6380   15.5160   -0.5570 N   0  0  0  0  0  0  0  0  0  0  0  0
   -2.1160   18.1040   -4.5050 O   0  0  0  0  0  0  0  0  0  0  0  0
   -2.7560   17.4930   -6.8740 O   0  0  0  0  0  0  0  0  0  0  0  0
   -1.3720   19.5700   -6.4970 O   0  0  0  0  0  0  0  0  0  0  0  0
   -3.2120   15.2860    1.4990 C   0  0  0  0  0  0  0  0  0  0  0  0
   -1.0160   14.7090    0.9880 C   0  0  0  0  0  0  0  0  0  0  0  0
   -0.7170   19.8610   -7.8960 P   0  0  2  0  0  0  0  0  0  0  0  0
   -4.1940   15.6040    2.4140 N   0  0  0  0  0  0  0  0  0  0  0  0
   -1.9540   14.9850    1.9180 N   0  0  0  0  0  0  0  0  0  0  0  0
   -0.1070   18.5980   -8.6640 O   0  0  0  0  0  0  0  0  0  0  0  0
    0.3790   20.9860   -7.6690 O   0  0  0  0  0  0  0  0  0  0  0  0
   -1.8670   20.5480   -8.7430 O   0  0  0  0  0  0  0  0  0  0  0  0
   -2.2980   21.8670   -8.5740 C   0  0  0  0  0  0  0  0  0  0  0  0
   -3.4700   22.0700   -7.6760 C   0  0  1  0  0  0  0  0  0  0  0  0
   -4.1110   23.4590   -7.7910 C   0  0  1  0  0  0  0  0  0  0  0  0
   -4.5460   21.1490   -7.9600 O   0  0  0  0  0  0  0  0  0  0  0  0
   -4.6140   23.7780   -9.1180 O   0  0  0  0  0  0  0  0  0  0  0  0
   -5.6510   21.7200   -7.2670 C   0  0  1  0  0  0  0  0  0  0  0  0
   -5.1740   23.1630   -6.9960 C   0  0  2  0  0  0  0  0  0  0  0  0
   -6.8190   21.5800   -8.0750 O   0  0  0  0  0  0  0  0  0  0  0  0
   -6.1830   24.1550   -7.1320 O   0  0  0  0  0  0  0  0  0  0  0  0
  1  2  1  0
  2  3  1  0
  2  4  2  0
  4  5  1  0
  3  6  2  0
  5  6  1  0
  6  7  1  0
  5  8  1  0
  8  9  1  6
 10  8  1  1
 11  7  1  6
 10 11  1  0
  9 12  1  0
 10 13  1  0
 11 14  1  0
 12 15  2  0
 12 16  1  0
 13 17  1  1
 13 18  1  0
 14 18  1  0
 14 19  1  1
 17 20  1  0
 19 21  1  0
 19 22  1  0
 20 23  1  0
 21 24  2  0
 21 25  1  0
 22 26  2  0
 24 26  1  0
 23 27  2  0
 23 28  1  6
 23 29  1  0
 24 30  1  0
 25 31  2  0
 29 32  1  0
 30 33  1  0
 30 34  2  0
 31 34  1  0
 32 35  2  0
 32 36  1  1
 32 37  1  0
 37 38  1  0
 39 38  1  6
 39 40  1  0
 39 41  1  0
 40 42  1  6
 41 43  1  0
 40 44  1  0
 43 44  1  0
 43 45  1  6
 44 46  1  6
M  END
>  <%Rank>  (65) 
25.396825

>  <N_hits>  (65) 
2

>  <submitter_name>  (65) 
nan

>  <original SMILES>  (65) 
nan

>  <∆G_unbound>  (65) 
5.308473

>  <∆G_bound>  (65) 
-13.452635

>  <regarded>  (65) 
mArh-x0628_0_A,mArh-5l9k_B_0_B

>  <ref_pdb>  (65) 
nan

>  <smiles>  (65) 
Cc1nc2n(n1)C(CC(=O)O)C1C(CO[P@](=O)(O)O[P@](=O)(O)OCC3OC(O)C(O)C3O)OC(n3cnc4c(N)ncnc43)C1C2

>  <submitter_email>  (65) 
nan

>  <disregarded>  (65) 


>  <LE>  (65) 
-0.40785

>  <submitter_institution>  (65) 
nan

>  <ref_mols>  (65) 
mArh-x0628_0_A,mArh-5l9k_B_0_B

>  <N_constrained_atoms>  (65) 
46.0

>  <ref_url>  (65) 
nan

>  <method>  (65) 
nan

>  <comRMSD>  (65) 
0.741382

>  <N_unconstrained_atoms>  (65) 
0.0

>  <∆∆G>  (65) 
-18.761108

>  <runtime>  (65) 
53.706202

>  <generation_date>  (65) 
nan

$$$$
mArh-6woj_A_0_A-mArh-5cb5_N_0_N
     RDKit          3D

 38 41  0  0  0  0  0  0  0  0999 V2000
   -1.1710   18.2610   -5.6050 P   0  0  2  0  0  0  0  0  0  0  0  0
   -0.5580   16.7960   -5.3910 O   0  0  0  0  0  0  0  0  0  0  0  0
    0.8310   16.7910   -5.0780 C   0  0  0  0  0  0  0  0  0  0  0  0
   -1.6710   18.9480   -4.4050 O   0  0  0  0  0  0  0  0  0  0  0  0
   -2.4690   18.2650   -6.7000 N   0  0  0  0  0  0  0  0  0  0  0  0
    0.0450   19.0110   -6.2650 O   0  0  0  0  0  0  0  0  0  0  0  0
   -0.0020   19.7940   -7.6220 P   0  0  1  0  0  0  0  0  0  0  0  0
   -2.7980   17.1450   -7.0220 O   0  0  0  0  0  0  0  0  0  0  0  0
    1.0310   20.8860   -7.6760 O   0  0  0  0  0  0  0  0  0  0  0  0
    0.2230   18.6550   -8.7190 O   0  0  0  0  0  0  0  0  0  0  0  0
   -1.5480   20.1800   -7.8140 O   0  0  0  0  0  0  0  0  0  0  0  0
    1.2550   15.4850   -4.3860 C   0  0  1  0  0  0  0  0  0  0  0  0
   -1.9560   21.4020   -8.4250 C   0  0  0  0  0  0  0  0  0  0  0  0
    0.6100   15.4100   -3.1000 O   0  0  0  0  0  0  0  0  0  0  0  0
    0.8080   14.2350   -5.1390 C   0  0  1  0  0  0  0  0  0  0  0  0
    1.7690   13.1810   -5.1150 O   0  0  0  0  0  0  0  0  0  0  0  0
   -0.4770   13.7590   -4.4790 C   0  0  2  0  0  0  0  0  0  0  0  0
   -0.1930   14.1970   -3.0390 C   0  0  2  0  0  0  0  0  0  0  0  0
   -3.0170   22.0660   -7.5550 C   0  0  1  0  0  0  0  0  0  0  0  0
   -0.5860   12.3290   -4.5880 O   0  0  0  0  0  0  0  0  0  0  0  0
   -4.0410   23.0760   -8.0410 C   0  0  0  0  0  0  0  0  0  0  0  0
   -3.8920   21.0880   -6.9740 O   0  0  0  0  0  0  0  0  0  0  0  0
   -1.3560   14.4670   -2.2150 N   0  0  0  0  0  0  0  0  0  0  0  0
   -3.6120   24.1680   -8.7450 O   0  0  0  0  0  0  0  0  0  0  0  0
   -5.1230   22.5560   -8.8000 O   0  0  0  0  0  0  0  0  0  0  0  0
   -5.0450   21.8410   -6.5930 C   0  0  2  0  0  0  0  0  0  0  0  0
   -4.5780   23.2930   -6.6660 C   0  0  2  0  0  0  0  0  0  0  0  0
   -1.3440   14.4580   -0.8520 C   0  0  0  0  0  0  0  0  0  0  0  0
   -2.6280   14.7710   -2.6210 C   0  0  0  0  0  0  0  0  0  0  0  0
   -5.4820   21.4530   -5.3230 O   0  0  0  0  0  0  0  0  0  0  0  0
   -5.6530   24.2380   -6.5510 O   0  0  0  0  0  0  0  0  0  0  0  0
   -2.6470   14.7690   -0.4750 C   0  0  0  0  0  0  0  0  0  0  0  0
   -0.2850   14.2030   -0.0700 N   0  0  0  0  0  0  0  0  0  0  0  0
   -3.4390   14.9610   -1.5950 N   0  0  0  0  0  0  0  0  0  0  0  0
   -2.9080   14.8320    0.8990 C   0  0  0  0  0  0  0  0  0  0  0  0
   -0.5950   14.2730    1.2430 C   0  0  0  0  0  0  0  0  0  0  0  0
   -4.1510   15.1400    1.4310 N   0  0  0  0  0  0  0  0  0  0  0  0
   -1.7900   14.5560    1.8040 N   0  0  0  0  0  0  0  0  0  0  0  0
  1  2  1  0
  2  3  1  0
  1  4  2  0
  1  5  1  6
  1  6  1  0
  6  7  1  0
  5  8  2  0
  7  9  2  0
  7 10  1  6
  7 11  1  0
 12  3  1  6
 11 13  1  0
 12 14  1  0
 12 15  1  0
 15 16  1  1
 15 17  1  0
 14 18  1  0
 17 18  1  0
 19 13  1  6
 17 20  1  1
 19 21  1  0
 19 22  1  0
 18 23  1  6
 21 24  1  0
 21 25  1  0
 22 26  1  0
 21 27  1  0
 26 27  1  0
 23 28  1  0
 23 29  1  0
 26 30  1  1
 27 31  1  6
 28 32  2  0
 28 33  1  0
 29 34  2  0
 32 34  1  0
 32 35  1  0
 33 36  2  0
 35 37  1  0
 35 38  2  0
 36 38  1  0
M  END
>  <%Rank>  (66) 
25.793651

>  <N_hits>  (66) 
2

>  <submitter_name>  (66) 
nan

>  <original SMILES>  (66) 
nan

>  <∆G_unbound>  (66) 
6.255646

>  <∆G_bound>  (66) 
-17.174994

>  <regarded>  (66) 
mArh-6woj_A_0_A,mArh-5cb5_N_0_N

>  <ref_pdb>  (66) 
nan

>  <smiles>  (66) 
Nc1ncnc2c1ncn2C1OC(CO[P@](=O)(N=O)O[P@@](=O)(O)OCC2OC(O)C(O)C2(O)O)C(O)C1O

>  <submitter_email>  (66) 
nan

>  <disregarded>  (66) 


>  <LE>  (66) 
-0.616596

>  <submitter_institution>  (66) 
nan

>  <ref_mols>  (66) 
mArh-6woj_A_0_A,mArh-5cb5_N_0_N

>  <N_constrained_atoms>  (66) 
38.0

>  <ref_url>  (66) 
nan

>  <method>  (66) 
nan

>  <comRMSD>  (66) 
0.783804

>  <N_unconstrained_atoms>  (66) 
0.0

>  <∆∆G>  (66) 
-23.43064

>  <runtime>  (66) 
60.277625

>  <generation_date>  (66) 
nan

$$$$
mArh-5cb5_B_0_B-mArh-x0895_0_A
     RDKit          3D

 37 40  0  0  0  0  0  0  0  0999 V2000
   -1.5850   18.3070   -6.0990 P   0  0  1  0  0  0  0  0  0  0  0  0
   -0.2870   17.4220   -6.3710 O   0  0  0  0  0  0  0  0  0  0  0  0
    0.4710   16.9200   -5.2740 C   0  0  0  0  0  0  0  0  0  0  0  0
   -2.7940   17.6010   -6.8420 O   0  0  0  0  0  0  0  0  0  0  0  0
   -1.7310   18.4630   -4.5220 O   0  0  0  0  0  0  0  0  0  0  0  0
   -1.1510   19.7130   -6.5830 O   0  0  0  0  0  0  0  0  0  0  0  0
   -0.3320   19.9820   -7.8900 P   0  0  1  0  0  0  0  0  0  0  0  0
    0.9060   20.7850   -7.7100 O   0  0  0  0  0  0  0  0  0  0  0  0
   -0.0760   18.5800   -8.6320 O   0  0  0  0  0  0  0  0  0  0  0  0
   -1.4300   20.6500   -8.8120 O   0  0  0  0  0  0  0  0  0  0  0  0
   -0.2990   15.7130   -4.7860 C   0  0  2  0  0  0  0  0  0  0  0  0
   -2.0690   21.7540   -8.1970 C   0  0  0  0  0  0  0  0  0  0  0  0
   -0.4770   15.6790   -3.3650 O   0  0  0  0  0  0  0  0  0  0  0  0
    0.1660   14.2870   -5.1300 C   0  0  1  0  0  0  0  0  0  0  0  0
    1.5480   14.0570   -5.2470 O   0  0  0  0  0  0  0  0  0  0  0  0
   -0.4250   13.4920   -3.9680 C   0  0  1  0  0  0  0  0  0  0  0  0
   -1.3540   14.5620   -3.4130 C   0  0  1  0  0  0  0  0  0  0  0  0
   -3.4070   22.0850   -8.8300 C   0  0  2  0  0  0  0  0  0  0  0  0
   -1.0390   12.3050   -4.4420 O   0  0  0  0  0  0  0  0  0  0  0  0
   -3.8650   23.4990   -8.5350 C   0  0  1  0  0  0  0  0  0  0  0  0
   -4.4510   21.2370   -8.3440 O   0  0  0  0  0  0  0  0  0  0  0  0
   -2.1520   14.2060   -2.2510 N   0  0  0  0  0  0  0  0  0  0  0  0
   -4.6710   24.0760   -9.5400 O   0  0  0  0  0  0  0  0  0  0  0  0
   -5.2990   21.9810   -7.4570 C   0  0  2  0  0  0  0  0  0  0  0  0
   -4.6100   23.3090   -7.2240 C   0  0  2  0  0  0  0  0  0  0  0  0
   -1.6870   14.5810   -0.9330 C   0  0  1  0  0  0  0  0  0  0  0  0
   -3.4010   15.0100   -2.3500 C   0  0  0  0  0  0  0  0  0  0  0  0
   -5.4080   21.3260   -6.1980 O   0  0  0  0  0  0  0  0  0  0  0  0
   -5.5800   24.3150   -6.9250 O   0  0  0  0  0  0  0  0  0  0  0  0
   -3.0630   14.5820   -0.2750 C   0  0  1  0  0  0  0  0  0  0  0  0
   -0.7410   13.7220   -0.2490 N   0  0  0  0  0  0  0  0  0  0  0  0
   -3.7400   15.5810   -1.0400 N   0  0  0  0  0  0  0  0  0  0  0  0
   -3.8070   13.4220   -0.6010 O   0  0  0  0  0  0  0  0  0  0  0  0
   -2.8460   14.7110    1.2490 C   0  0  2  0  0  0  0  0  0  0  0  0
   -0.4190   14.4010    1.0230 C   0  0  0  0  0  0  0  0  0  0  0  0
   -3.8680   15.5830    1.8210 N   0  0  0  0  0  0  0  0  0  0  0  0
   -1.5280   15.2320    1.5160 N   0  0  0  0  0  0  0  0  0  0  0  0
  1  2  1  0
  2  3  1  0
  1  4  2  0
  1  5  1  1
  1  6  1  0
  6  7  1  0
  7  8  2  0
  7  9  1  6
  7 10  1  0
 11  3  1  1
 10 12  1  0
 11 13  1  0
 11 14  1  0
 14 15  1  1
 14 16  1  0
 13 17  1  0
 16 17  1  0
 18 12  1  1
 16 19  1  6
 18 20  1  0
 18 21  1  0
 17 22  1  1
 20 23  1  6
 21 24  1  0
 20 25  1  0
 24 25  1  0
 22 26  1  0
 22 27  1  0
 24 28  1  1
 25 29  1  6
 26 30  1  0
 26 31  1  1
 27 32  1  0
 30 32  1  0
 30 33  1  1
 30 34  1  0
 31 35  1  0
 34 36  1  6
 34 37  1  0
 35 37  1  0
M  END
>  <%Rank>  (67) 
26.190476

>  <N_hits>  (67) 
2

>  <submitter_name>  (67) 
nan

>  <original SMILES>  (67) 
nan

>  <∆G_unbound>  (67) 
4.981744

>  <∆G_bound>  (67) 
-14.262905

>  <regarded>  (67) 
mArh-5cb5_B_0_B,mArh-x0895_0_A

>  <ref_pdb>  (67) 
nan

>  <smiles>  (67) 
NC1NCNC2N(C3OC(CO[P@@](=O)(O)O[P@@](=O)(O)OCC4OC(O)C(O)C4O)C(O)C3O)CNC12O

>  <submitter_email>  (67) 
nan

>  <disregarded>  (67) 


>  <LE>  (67) 
-0.520126

>  <submitter_institution>  (67) 
nan

>  <ref_mols>  (67) 
mArh-5cb5_B_0_B,mArh-x0895_0_A

>  <N_constrained_atoms>  (67) 
37.0

>  <ref_url>  (67) 
nan

>  <method>  (67) 
nan

>  <comRMSD>  (67) 
0.727758

>  <N_unconstrained_atoms>  (67) 
0.0

>  <∆∆G>  (67) 
-19.244649

>  <runtime>  (67) 
34.910278

>  <generation_date>  (67) 
nan

$$$$
mArh-5cms_Q_16_Q-mArh-5cb5_J_2_J
     RDKit          3D

 44 48  0  0  0  0  0  0  0  0999 V2000
   -1.8820   17.7290   -5.8370 P   0  0  1  0  0  0  0  0  0  0  0  0
   -0.8280   17.1630   -4.7750 O   0  0  0  0  0  0  0  0  0  0  0  0
    0.4360   16.6340   -5.1710 C   0  0  0  0  0  0  0  0  0  0  0  0
   -3.0760   16.8870   -6.1060 O   0  0  0  0  0  0  0  0  0  0  0  0
   -2.2550   19.1280   -5.1460 O   0  0  0  0  0  0  0  0  0  0  0  0
   -1.1480   18.1570   -7.1470 O   0  0  0  0  0  0  0  0  0  0  0  0
   -0.4400   19.5290   -7.4930 P   0  0  1  0  0  0  0  0  0  0  0  0
    1.0060   19.6620   -7.2070 O   0  0  0  0  0  0  0  0  0  0  0  0
   -0.6670   19.4090   -9.0370 O   0  0  0  0  0  0  0  0  0  0  0  0
   -1.3750   20.8130   -7.2110 O   0  0  0  0  0  0  0  0  0  0  0  0
    0.7390   15.3030   -4.4460 C   0  0  1  0  0  0  0  0  0  0  0  0
   -1.9220   21.4090   -8.4020 C   0  0  0  0  0  0  0  0  0  0  0  0
    0.1290   15.3090   -3.1440 O   0  0  0  0  0  0  0  0  0  0  0  0
    0.1970   14.0350   -5.1510 C   0  0  1  0  0  0  0  0  0  0  0  0
    1.1400   12.9640   -5.1460 O   0  0  0  0  0  0  0  0  0  0  0  0
   -1.0340   13.6110   -4.3410 C   0  0  2  0  0  0  0  0  0  0  0  0
   -1.1900   14.8220   -3.4170 C   0  0  1  0  0  0  0  0  0  0  0  0
   -0.9630   21.9560   -9.4240 C   0  0  2  0  0  0  0  0  0  0  0  0
   -3.3750   21.9370   -8.4150 C   0  0  2  0  0  0  0  0  0  0  0  0
   -0.6990   12.3730   -3.7320 O   0  0  0  0  0  0  0  0  0  0  0  0
   -0.7330   23.4540   -9.6640 C   0  0  1  0  0  0  0  0  0  0  0  0
   -1.5840   21.4910  -10.6290 O   0  0  0  0  0  0  0  0  0  0  0  0
   -2.0490   14.8970   -2.2450 N   0  0  0  0  0  0  0  0  0  0  0  0
   -3.6740   23.4190   -8.1520 C   0  0  1  0  0  0  0  0  0  0  0  0
   -4.1480   21.1720   -7.5200 O   0  0  0  0  0  0  0  0  0  0  0  0
    0.4710   23.7430  -10.3690 O   0  0  0  0  0  0  0  0  0  0  0  0
   -4.3660   24.0320   -9.2540 O   0  0  0  0  0  0  0  0  0  0  0  0
   -2.1610   22.5770  -11.3210 C   0  0  2  0  0  0  0  0  0  0  0  0
   -1.9300   23.8300  -10.5120 C   0  0  2  0  0  0  0  0  0  0  0  0
   -1.7120   14.8210   -0.9000 C   0  0  0  0  0  0  0  0  0  0  0  0
   -3.4030   15.1070   -2.3150 C   0  0  0  0  0  0  0  0  0  0  0  0
   -5.2220   21.9620   -7.0940 C   0  0  2  0  0  0  0  0  0  0  0  0
   -4.6780   23.3810   -7.0140 C   0  0  2  0  0  0  0  0  0  0  0  0
   -3.5560   22.3930  -11.5140 O   0  0  0  0  0  0  0  0  0  0  0  0
   -1.5900   24.9290  -11.3860 O   0  0  0  0  0  0  0  0  0  0  0  0
   -5.6170   21.5120   -5.8160 O   0  0  0  0  0  0  0  0  0  0  0  0
   -5.7360   24.3090   -7.2530 O   0  0  0  0  0  0  0  0  0  0  0  0
   -2.9280   15.0270   -0.2490 C   0  0  0  0  0  0  0  0  0  0  0  0
   -0.5100   14.6210   -0.3070 N   0  0  0  0  0  0  0  0  0  0  0  0
   -3.9630   15.1910   -1.1330 N   0  0  0  0  0  0  0  0  0  0  0  0
   -2.9070   15.0460    1.1440 C   0  0  0  0  0  0  0  0  0  0  0  0
   -0.6300   14.6430    1.0410 C   0  0  0  0  0  0  0  0  0  0  0  0
   -4.0640   15.2890    1.8650 N   0  0  0  0  0  0  0  0  0  0  0  0
   -1.7340   14.8360    1.7910 N   0  0  0  0  0  0  0  0  0  0  0  0
  1  2  1  0
  2  3  1  0
  1  4  2  0
  1  5  1  1
  1  6  1  0
  6  7  1  0
  7  8  2  0
  7  9  1  6
  7 10  1  0
 11  3  1  6
 10 12  1  0
 11 13  1  0
 11 14  1  0
 14 15  1  1
 14 16  1  0
 13 17  1  0
 16 17  1  0
 18 12  1  1
 19 12  1  1
 16 20  1  1
 18 21  1  0
 18 22  1  0
 17 23  1  1
 19 24  1  0
 19 25  1  0
 21 26  1  6
 24 27  1  6
 22 28  1  0
 21 29  1  0
 28 29  1  0
 23 30  1  0
 23 31  1  0
 25 32  1  0
 24 33  1  0
 32 33  1  0
 28 34  1  1
 29 35  1  6
 32 36  1  1
 33 37  1  6
 30 38  2  0
 30 39  1  0
 31 40  2  0
 38 40  1  0
 38 41  1  0
 39 42  2  0
 41 43  1  0
 41 44  2  0
 42 44  1  0
M  END
>  <%Rank>  (68) 
26.587302

>  <N_hits>  (68) 
2

>  <submitter_name>  (68) 
nan

>  <original SMILES>  (68) 
nan

>  <∆G_unbound>  (68) 
6.519983

>  <∆G_bound>  (68) 
-11.645967

>  <regarded>  (68) 
mArh-5cms_Q_16_Q,mArh-5cb5_J_2_J

>  <ref_pdb>  (68) 
nan

>  <smiles>  (68) 
Nc1ncnc2c1ncn2C1OC(CO[P@@](=O)(O)O[P@@](=O)(O)OC(C2OC(O)C(O)C2O)C2OC(O)C(O)C2O)C(O)C1O

>  <submitter_email>  (68) 
nan

>  <disregarded>  (68) 


>  <LE>  (68) 
-0.412863

>  <submitter_institution>  (68) 
nan

>  <ref_mols>  (68) 
mArh-5cms_Q_16_Q,mArh-5cb5_J_2_J

>  <N_constrained_atoms>  (68) 
44.0

>  <ref_url>  (68) 
nan

>  <method>  (68) 
nan

>  <comRMSD>  (68) 
0.739456

>  <N_unconstrained_atoms>  (68) 
0.0

>  <∆∆G>  (68) 
-18.165951

>  <runtime>  (68) 
48.10697

>  <generation_date>  (68) 
nan

$$$$
mArh-x0844_0_A-mArh-x0864_0_A
     RDKit          3D

 23 24  0  0  0  0  0  0  0  0999 V2000
   -7.4440   14.9790   -0.2230 O   0  0  0  0  0  0  0  0  0  0  0  0
   -6.2260   14.8130   -0.1180 C   0  0  0  0  0  0  0  0  0  0  0  0
   -5.6080   14.9310    1.0870 N   0  0  0  0  0  0  0  0  0  0  0  0
   -5.3280   14.4410   -1.3300 C   0  0  0  0  0  0  0  0  0  0  0  0
   -4.2700   15.0720    1.1950 C   0  0  0  0  0  0  0  0  0  0  0  0
   -4.0580   15.2850   -1.2890 C   0  0  2  0  0  0  0  0  0  0  0  0
   -3.0060   14.7670   -2.1320 O   0  0  0  0  0  0  0  0  0  0  0  0
   -3.5200   15.2310    0.1140 C   0  0  0  0  0  0  0  0  0  0  0  0
   -3.0480   15.0580   -3.5270 C   0  0  0  0  0  0  0  0  0  0  0  0
   -2.3090   13.9970   -4.3890 C   0  0  0  0  0  0  0  0  0  0  0  0
   -0.8130   14.1200   -4.0950 C   0  0  0  0  0  0  0  0  0  0  0  0
    0.1450   12.9260   -4.4220 C   0  0  1  0  0  0  0  0  0  0  0  0
    0.7680   12.3790   -3.1220 C   0  0  0  0  0  0  0  0  0  0  0  0
   -0.4180   11.9190   -5.3400 N   0  0  0  0  0  0  0  0  0  0  0  0
    0.5040   11.0680   -2.9030 O   0  0  0  0  0  0  0  0  0  0  0  0
    1.4380   13.0200   -2.3310 O   0  0  0  0  0  0  0  0  0  0  0  0
   -1.4780   11.1300   -4.9230 C   0  0  0  0  0  0  0  0  0  0  0  0
    0.4280   11.4680   -6.3660 C   0  0  0  0  0  0  0  0  0  0  0  0
    1.5260   11.9550   -6.6280 O   0  0  0  0  0  0  0  0  0  0  0  0
   -1.8500   10.0380   -5.5940 C   0  0  0  0  0  0  0  0  0  0  0  0
   -0.0540   10.3190   -7.1710 C   0  0  0  0  0  0  0  0  0  0  0  0
   -1.1440    9.6480   -6.7840 C   0  0  0  0  0  0  0  0  0  0  0  0
   -1.8100    8.1900   -7.7340 Br  0  0  0  0  0  0  0  0  0  0  0  0
  1  2  2  0
  2  3  1  0
  2  4  1  0
  3  5  1  0
  4  6  1  0
  6  7  1  6
  5  8  2  0
  6  8  1  0
  7  9  1  0
  9 10  1  0
 10 11  1  0
 12 11  1  1
 12 13  1  0
 12 14  1  0
 13 15  1  0
 13 16  2  0
 14 17  1  0
 14 18  1  0
 18 19  2  0
 17 20  2  0
 18 21  1  0
 20 22  1  0
 21 22  2  0
 22 23  1  0
M  END
>  <%Rank>  (69) 
26.984127

>  <N_hits>  (69) 
2

>  <submitter_name>  (69) 
nan

>  <original SMILES>  (69) 
nan

>  <∆G_unbound>  (69) 
1.985591

>  <∆G_bound>  (69) 
-3.151095

>  <regarded>  (69) 
mArh-x0844_0_A,mArh-x0864_0_A

>  <ref_pdb>  (69) 
nan

>  <smiles>  (69) 
O=C1CC(OCCCC(C(=O)O)n2ccc(Br)cc2=O)C=CN1

>  <submitter_email>  (69) 
nan

>  <disregarded>  (69) 


>  <LE>  (69) 
-0.223334

>  <submitter_institution>  (69) 
nan

>  <ref_mols>  (69) 
mArh-x0844_0_A,mArh-x0864_0_A

>  <N_constrained_atoms>  (69) 
20.0

>  <ref_url>  (69) 
nan

>  <method>  (69) 
nan

>  <comRMSD>  (69) 
0.289714

>  <N_unconstrained_atoms>  (69) 
3.0

>  <∆∆G>  (69) 
-5.136687

>  <runtime>  (69) 
18.017627

>  <generation_date>  (69) 
nan

$$$$
mArh-3ew5_A_0_A-mArh-6fx_7_0A
     RDKit          3D

 39 42  0  0  0  0  0  0  0  0999 V2000
   -0.2590   20.1600   -7.9680 P   0  0  2  0  0  0  0  0  0  0  0  0
   -1.6330   20.6470   -8.6750 O   0  0  0  0  0  0  0  0  0  0  0  0
   -2.7640   21.2400   -8.0400 C   0  0  1  0  0  0  0  0  0  0  0  0
    0.8000   21.2130   -7.9160 O   0  0  0  0  0  0  0  0  0  0  0  0
    0.1190   18.9110   -8.8850 O   0  0  0  0  0  0  0  0  0  0  0  0
   -0.4410   19.4650   -6.5680 O   0  0  0  0  0  0  0  0  0  0  0  0
   -1.5730   18.5440   -5.9750 P   0  0  1  0  0  0  0  0  0  0  0  0
   -2.3580   21.9390   -6.8230 C   0  0  0  0  0  0  0  0  0  0  0  0
   -0.9590   17.0700   -5.7810 O   0  0  0  0  0  0  0  0  0  0  0  0
   -2.2140   19.1390   -4.7820 O   0  0  0  0  0  0  0  0  0  0  0  0
   -2.6300   18.2970   -7.1260 O   0  0  0  0  0  0  0  0  0  0  0  0
   -3.5960   22.2170   -8.8810 C   0  0  2  0  0  0  0  0  0  0  0  0
   -3.0950   23.1570   -6.6430 O   0  0  0  0  0  0  0  0  0  0  0  0
    0.3750   16.9160   -5.2870 C   0  0  0  0  0  0  0  0  0  0  0  0
   -5.0000   22.4700   -8.3310 C   0  0  1  0  0  0  0  0  0  0  0  0
   -3.7410   21.9260  -10.2710 O   0  0  0  0  0  0  0  0  0  0  0  0
    0.5410   15.6360   -4.4430 C   0  0  1  0  0  0  0  0  0  0  0  0
   -4.9310   22.5500  -10.7670 C   0  0  1  0  0  0  0  0  0  0  0  0
   -5.8140   22.8380   -9.5650 C   0  0  2  0  0  0  0  0  0  0  0  0
   -5.6320   21.2590   -7.6570 C   0  0  0  0  0  0  0  0  0  0  0  0
   -4.6490   23.7710  -11.4220 O   0  0  0  0  0  0  0  0  0  0  0  0
   -6.0910   24.2370   -9.5270 O   0  0  0  0  0  0  0  0  0  0  0  0
   -0.2190   15.7830   -3.2340 O   0  0  0  0  0  0  0  0  0  0  0  0
    0.0330   14.3190   -5.0750 C   0  0  1  0  0  0  0  0  0  0  0  0
   -6.0480   21.6030   -6.3430 O   0  0  0  0  0  0  0  0  0  0  0  0
    1.0720   13.4210   -5.4360 O   0  0  0  0  0  0  0  0  0  0  0  0
   -0.8230   13.6860   -3.9720 C   0  0  1  0  0  0  0  0  0  0  0  0
   -1.3860   14.9600   -3.4070 C   0  0  1  0  0  0  0  0  0  0  0  0
   -1.7890   12.7960   -4.5200 O   0  0  0  0  0  0  0  0  0  0  0  0
   -2.1730   15.0030   -2.1880 N   0  0  0  0  0  0  0  0  0  0  0  0
   -1.7630   14.8860   -0.8730 C   0  0  0  0  0  0  0  0  0  0  0  0
   -3.5260   15.2220   -2.1760 C   0  0  0  0  0  0  0  0  0  0  0  0
   -2.9320   15.0890   -0.1450 C   0  0  0  0  0  0  0  0  0  0  0  0
   -0.5350   14.6620   -0.3690 N   0  0  0  0  0  0  0  0  0  0  0  0
   -4.0130   15.2770   -0.9690 N   0  0  0  0  0  0  0  0  0  0  0  0
   -2.8240   15.0840    1.2380 C   0  0  0  0  0  0  0  0  0  0  0  0
   -0.5670   14.6560    0.9830 C   0  0  0  0  0  0  0  0  0  0  0  0
   -3.9220   15.3330    2.0370 N   0  0  0  0  0  0  0  0  0  0  0  0
   -1.6200   14.8490    1.8060 N   0  0  0  0  0  0  0  0  0  0  0  0
  1  2  1  0
  2  3  1  0
  1  4  2  0
  1  5  1  6
  1  6  1  0
  6  7  1  0
  3  8  1  1
  7  9  1  0
  7 10  2  0
  7 11  1  6
  3 12  1  0
  8 13  1  0
  9 14  1  0
 12 15  1  0
 12 16  1  6
 17 14  1  6
 16 18  1  0
 15 19  1  0
 18 19  1  0
 15 20  1  6
 18 21  1  1
 19 22  1  1
 17 23  1  0
 17 24  1  0
 20 25  1  0
 24 26  1  1
 24 27  1  0
 23 28  1  0
 27 28  1  0
 27 29  1  6
 28 30  1  1
 30 31  1  0
 30 32  1  0
 31 33  2  0
 31 34  1  0
 32 35  2  0
 33 35  1  0
 33 36  1  0
 34 37  2  0
 36 38  1  0
 36 39  2  0
 37 39  1  0
M  END
>  <%Rank>  (70) 
27.380952

>  <N_hits>  (70) 
2

>  <submitter_name>  (70) 
nan

>  <original SMILES>  (70) 
nan

>  <∆G_unbound>  (70) 
4.557375

>  <∆G_bound>  (70) 
-13.905521

>  <regarded>  (70) 
mArh-3ew5_A_0_A,mArh-6fx_7_0A

>  <ref_pdb>  (70) 
nan

>  <smiles>  (70) 
Nc1ncnc2c1ncn2C1OC(CO[P@](=O)(O)OP(=O)(O)OC(CO)C2OC(O)C(O)C2CO)C(O)C1O

>  <submitter_email>  (70) 
nan

>  <disregarded>  (70) 


>  <LE>  (70) 
-0.473408

>  <submitter_institution>  (70) 
nan

>  <ref_mols>  (70) 
mArh-3ew5_A_0_A,mArh-6fx_7_0A

>  <N_constrained_atoms>  (70) 
38.0

>  <ref_url>  (70) 
nan

>  <method>  (70) 
nan

>  <comRMSD>  (70) 
0.711271

>  <N_unconstrained_atoms>  (70) 
1.0

>  <∆∆G>  (70) 
-18.462896

>  <runtime>  (70) 
61.768334

>  <generation_date>  (70) 
nan

$$$$
mArh-5cb5_O_0_O-mArh-1hjz_B_0_B
     RDKit          3D

 38 41  0  0  0  0  0  0  0  0999 V2000
   -1.5490   18.2210   -6.2210 P   0  0  1  0  0  0  0  0  0  0  0  0
   -0.7780   16.8650   -5.8090 O   0  0  0  0  0  0  0  0  0  0  0  0
    0.5460   16.9630   -5.2620 C   0  0  0  0  0  0  0  0  0  0  0  0
   -2.4430   18.0990   -7.4070 O   0  0  0  0  0  0  0  0  0  0  0  0
   -2.4860   18.4010   -5.0760 O   0  0  0  0  0  0  0  0  0  0  0  0
   -0.6830   19.5650   -6.3800 O   0  0  0  0  0  0  0  0  0  0  0  0
   -0.3660   19.8160   -8.1240 P   0  0  0  0  0  0  0  0  0  0  0  0
    0.9500   20.9470   -8.2150 N   0  0  0  0  0  0  0  0  0  0  0  0
   -0.0880   18.5480   -8.7820 O   0  0  0  0  0  0  0  0  0  0  0  0
   -1.7630   20.4800   -8.8270 O   0  0  0  0  0  0  0  0  0  0  0  0
    0.8590   15.7270   -4.4490 C   0  0  1  0  0  0  0  0  0  0  0  0
   -1.9910   21.7580   -8.5690 C   0  0  2  0  0  0  0  0  0  0  0  0
    1.0800   21.8750   -7.5420 O   0  0  0  0  0  0  0  0  0  0  0  0
    0.2750   15.6820   -3.1410 O   0  0  0  0  0  0  0  0  0  0  0  0
    0.1320   14.5460   -5.0760 C   0  0  1  0  0  0  0  0  0  0  0  0
    0.9990   13.4550   -4.9600 O   0  0  0  0  0  0  0  0  0  0  0  0
   -1.8860   22.0500   -7.0970 C   0  0  0  0  0  0  0  0  0  0  0  0
   -0.9710   14.2550   -4.4000 C   0  0  2  0  0  0  0  0  0  0  0  0
   -1.1050   15.4200   -3.4330 C   0  0  1  0  0  0  0  0  0  0  0  0
   -3.3990   22.1270   -8.9670 C   0  0  2  0  0  0  0  0  0  0  0  0
   -0.7530   13.0190   -3.7970 O   0  0  0  0  0  0  0  0  0  0  0  0
   -3.7920   23.4790   -8.5400 C   0  0  1  0  0  0  0  0  0  0  0  0
   -4.3620   21.2760   -8.5430 O   0  0  0  0  0  0  0  0  0  0  0  0
   -1.9260   15.2650   -2.2640 N   0  0  0  0  0  0  0  0  0  0  0  0
   -4.6700   24.0540   -9.4840 O   0  0  0  0  0  0  0  0  0  0  0  0
   -4.7480   21.7230   -7.2990 C   0  0  1  0  0  0  0  0  0  0  0  0
   -4.5850   23.2040   -7.2570 C   0  0  2  0  0  0  0  0  0  0  0  0
   -1.5380   15.1970   -0.9330 C   0  0  0  0  0  0  0  0  0  0  0  0
   -3.2530   15.2110   -2.2690 C   0  0  0  0  0  0  0  0  0  0  0  0
   -6.0520   21.3750   -6.9340 O   0  0  0  0  0  0  0  0  0  0  0  0
   -5.8290   23.8810   -7.2920 O   0  0  0  0  0  0  0  0  0  0  0  0
   -2.6860   15.1320   -0.1880 C   0  0  0  0  0  0  0  0  0  0  0  0
   -0.3340   15.1980   -0.3130 N   0  0  0  0  0  0  0  0  0  0  0  0
   -3.7480   15.1390   -1.0080 N   0  0  0  0  0  0  0  0  0  0  0  0
   -2.6060   15.0810    1.1860 C   0  0  0  0  0  0  0  0  0  0  0  0
   -0.2710   15.1250    1.0270 C   0  0  0  0  0  0  0  0  0  0  0  0
   -3.8720   15.0640    1.8440 N   0  0  0  0  0  0  0  0  0  0  0  0
   -1.4140   15.0650    1.7660 N   0  0  0  0  0  0  0  0  0  0  0  0
  1  2  1  0
  2  3  1  0
  1  4  2  0
  1  5  1  1
  1  6  1  0
  6  7  1  0
  7  8  1  0
  7  9  1  0
  7 10  1  0
 11  3  1  6
 10 12  1  0
  8 13  2  0
 11 14  1  0
 11 15  1  0
 15 16  1  1
 12 17  1  1
 15 18  1  0
 14 19  1  0
 18 19  1  0
 12 20  1  0
 18 21  1  1
 20 22  1  0
 20 23  1  1
 19 24  1  1
 22 25  1  6
 23 26  1  0
 22 27  1  0
 26 27  1  0
 24 28  1  0
 24 29  1  0
 26 30  1  6
 27 31  1  6
 28 32  2  0
 28 33  1  0
 29 34  2  0
 32 34  1  0
 32 35  1  0
 33 36  2  0
 35 37  1  0
 35 38  2  0
 36 38  1  0
M  END
>  <%Rank>  (71) 
27.777778

>  <N_hits>  (71) 
2

>  <submitter_name>  (71) 
nan

>  <original SMILES>  (71) 
nan

>  <∆G_unbound>  (71) 
4.62529

>  <∆G_bound>  (71) 
-3.55255

>  <regarded>  (71) 
mArh-5cb5_O_0_O,mArh-1hjz_B_0_B

>  <ref_pdb>  (71) 
nan

>  <smiles>  (71) 
CC(O[PH](O)(N=O)O[P@](=O)(O)OCC1OC(n2cnc3c(N)ncnc32)C(O)C1O)C1OC(O)C(O)C1O

>  <submitter_email>  (71) 
nan

>  <disregarded>  (71) 


>  <LE>  (71) 
-0.215206

>  <submitter_institution>  (71) 
nan

>  <ref_mols>  (71) 
mArh-5cb5_O_0_O,mArh-1hjz_B_0_B

>  <N_constrained_atoms>  (71) 
38.0

>  <ref_url>  (71) 
nan

>  <method>  (71) 
nan

>  <comRMSD>  (71) 
0.600375

>  <N_unconstrained_atoms>  (71) 
0.0

>  <∆∆G>  (71) 
-8.17784

>  <runtime>  (71) 
40.96645

>  <generation_date>  (71) 
nan

$$$$
mArh-5cms_P_15_P-mArh-5cb5_I_0_I
     RDKit          3D

 43 48  0  0  0  0  0  0  0  0999 V2000
   -1.5750   18.0360   -6.1380 P   0  0  1  0  0  0  0  0  0  0  0  0
   -0.1410   17.3610   -6.3460 O   0  0  0  0  0  0  0  0  0  0  0  0
    0.5940   16.6930   -5.3190 C   0  0  0  0  0  0  0  0  0  0  0  0
   -2.7320   17.2800   -6.6740 O   0  0  0  0  0  0  0  0  0  0  0  0
   -1.6840   18.3260   -4.5790 O   0  0  0  0  0  0  0  0  0  0  0  0
   -1.4560   19.4660   -6.7600 O   0  0  0  0  0  0  0  0  0  0  0  0
   -0.3690   19.7290   -7.8800 P   0  0  1  0  0  0  0  0  0  0  0  0
    0.8880   20.4130   -7.4850 O   0  0  0  0  0  0  0  0  0  0  0  0
   -0.1400   18.3760   -8.6760 O   0  0  0  0  0  0  0  0  0  0  0  0
   -1.2480   20.4060   -9.0020 O   0  0  0  0  0  0  0  0  0  0  0  0
   -0.2330   15.5810   -4.6940 C   0  0  2  0  0  0  0  0  0  0  0  0
   -1.7340   21.6920   -8.8110 C   0  0  1  0  0  0  0  0  0  0  0  0
    0.0450   15.4260   -3.3020 O   0  0  0  0  0  0  0  0  0  0  0  0
   -0.1080   14.1540   -5.2180 C   0  0  1  0  0  0  0  0  0  0  0  0
    1.1720   13.5520   -5.0240 O   0  0  0  0  0  0  0  0  0  0  0  0
   -1.1010   13.5380   -4.2690 C   0  0  2  0  0  0  0  0  0  0  0  0
   -0.6320   14.2030   -2.9480 C   0  0  2  0  0  0  0  0  0  0  0  0
   -1.3050   22.5630   -9.9680 C   0  0  1  0  0  0  0  0  0  0  0  0
   -3.2430   21.7490   -8.8420 C   0  0  2  0  0  0  0  0  0  0  0  0
   -0.9090   12.1240   -4.3060 O   0  0  0  0  0  0  0  0  0  0  0  0
   -2.4910   23.2590  -10.6900 C   0  0  1  0  0  0  0  0  0  0  0  0
   -0.1640   23.5950   -9.8070 C   0  0  1  0  0  0  0  0  0  0  0  0
   -1.6570   14.5330   -1.9960 N   0  0  0  0  0  0  0  0  0  0  0  0
   -3.5180   23.2050   -8.5930 C   0  0  1  0  0  0  0  0  0  0  0  0
   -3.9800   20.9530   -7.9080 O   0  0  0  0  0  0  0  0  0  0  0  0
   -3.5060   23.9040   -9.8590 O   0  0  0  0  0  0  0  0  0  0  0  0
    1.0750   23.1160  -10.3160 O   0  0  0  0  0  0  0  0  0  0  0  0
   -1.5970   24.0870  -11.5850 C   0  0  2  0  0  0  0  0  0  0  0  0
   -1.4310   14.5450   -0.6600 C   0  0  0  0  0  0  0  0  0  0  0  0
   -2.9700   14.8810   -2.2040 C   0  0  0  0  0  0  0  0  0  0  0  0
   -5.1590   21.7080   -7.6290 C   0  0  2  0  0  0  0  0  0  0  0  0
   -4.7490   23.2000   -7.6920 C   0  0  2  0  0  0  0  0  0  0  0  0
   -0.5570   24.7390  -10.7140 C   0  0  0  0  0  0  0  0  0  0  0  0
   -2.2360   25.0320  -12.4280 O   0  0  0  0  0  0  0  0  0  0  0  0
   -5.5760   21.3670   -6.3020 O   0  0  0  0  0  0  0  0  0  0  0  0
   -5.7700   24.0050   -8.2560 O   0  0  0  0  0  0  0  0  0  0  0  0
   -2.6430   14.9070   -0.1010 C   0  0  0  0  0  0  0  0  0  0  0  0
   -0.2770   14.2630   -0.0390 N   0  0  0  0  0  0  0  0  0  0  0  0
   -3.5970   15.1170   -1.0710 N   0  0  0  0  0  0  0  0  0  0  0  0
   -2.6760   14.9940    1.2790 C   0  0  0  0  0  0  0  0  0  0  0  0
   -0.4430   14.3710    1.2890 C   0  0  0  0  0  0  0  0  0  0  0  0
   -3.8160   15.3640    1.9730 N   0  0  0  0  0  0  0  0  0  0  0  0
   -1.5510   14.7080    1.9700 N   0  0  0  0  0  0  0  0  0  0  0  0
  1  2  1  0
  2  3  1  0
  1  4  2  0
  1  5  1  1
  1  6  1  0
  6  7  1  0
  7  8  2  0
  7  9  1  6
  7 10  1  0
 11  3  1  6
 12 10  1  6
 11 13  1  0
 11 14  1  0
 14 15  1  1
 14 16  1  0
 13 17  1  0
 16 17  1  0
 12 18  1  0
 12 19  1  0
 16 20  1  1
 18 21  1  0
 18 22  1  1
 17 23  1  1
 19 24  1  0
 19 25  1  1
 21 26  1  1
 24 26  1  6
 22 27  1  6
 21 28  1  0
 23 29  1  0
 23 30  1  0
 25 31  1  0
 24 32  1  0
 31 32  1  0
 22 33  1  0
 28 33  1  0
 28 34  1  1
 31 35  1  1
 32 36  1  6
 29 37  2  0
 29 38  1  0
 30 39  2  0
 37 39  1  0
 37 40  1  0
 38 41  2  0
 40 42  1  0
 40 43  2  0
 41 43  1  0
M  END
>  <%Rank>  (72) 
28.174603

>  <N_hits>  (72) 
2

>  <submitter_name>  (72) 
nan

>  <original SMILES>  (72) 
nan

>  <∆G_unbound>  (72) 
5.807837

>  <∆G_bound>  (72) 
-16.453269

>  <regarded>  (72) 
mArh-5cms_P_15_P,mArh-5cb5_I_0_I

>  <ref_pdb>  (72) 
nan

>  <smiles>  (72) 
Nc1ncnc2c1ncn2C1OC(CO[P@@](=O)(O)O[P@@](=O)(O)OC2C3OC(O)C(O)C3OC3C(O)CC(O)C32)C(O)C1O

>  <submitter_email>  (72) 
nan

>  <disregarded>  (72) 


>  <LE>  (72) 
-0.5177

>  <submitter_institution>  (72) 
nan

>  <ref_mols>  (72) 
mArh-5cms_P_15_P,mArh-5cb5_I_0_I

>  <N_constrained_atoms>  (72) 
40.0

>  <ref_url>  (72) 
nan

>  <method>  (72) 
nan

>  <comRMSD>  (72) 
0.732499

>  <N_unconstrained_atoms>  (72) 
3.0

>  <∆∆G>  (72) 
-22.261107

>  <runtime>  (72) 
50.633812

>  <generation_date>  (72) 
nan

$$$$
mArh-3ew5_C_0_C-mArh-2fav_B_0_B
     RDKit          3D

 38 41  0  0  0  0  0  0  0  0999 V2000
   -0.5460   19.5950   -7.8270 P   0  0  2  0  0  0  0  0  0  0  0  0
   -1.3030   20.9730   -8.4040 O   0  0  0  0  0  0  0  0  0  0  0  0
   -2.1780   21.6230   -7.5300 C   0  0  2  0  0  0  0  0  0  0  0  0
    0.5610   19.8140   -6.8580 O   0  0  0  0  0  0  0  0  0  0  0  0
    0.1990   18.7560   -9.0250 O   0  0  0  0  0  0  0  0  0  0  0  0
   -1.5570   18.6370   -7.3320 O   0  0  0  0  0  0  0  0  0  0  0  0
   -1.2600   18.0450   -5.8270 P   0  0  0  0  0  0  0  0  0  0  0  0
   -2.7930   20.8700   -6.4070 C   0  0  0  0  0  0  0  0  0  0  0  0
   -0.3340   16.7110   -5.5390 O   0  0  0  0  0  0  0  0  0  0  0  0
   -1.8460   18.9040   -4.5570 O   0  0  0  0  0  0  0  0  0  0  0  0
   -2.5070   17.2410   -6.1050 O   0  0  0  0  0  0  0  0  0  0  0  0
   -3.3440   22.0840   -8.3370 C   0  0  2  0  0  0  0  0  0  0  0  0
   -3.9970   21.3540   -5.9710 O   0  0  0  0  0  0  0  0  0  0  0  0
    0.8440   16.9320   -4.8730 C   0  0  0  0  0  0  0  0  0  0  0  0
   -3.7510   23.4840   -8.1760 C   0  0  2  0  0  0  0  0  0  0  0  0
   -4.4140   21.3520   -7.8860 O   0  0  0  0  0  0  0  0  0  0  0  0
    1.2740   15.6930   -4.0650 C   0  0  1  0  0  0  0  0  0  0  0  0
   -5.2640   22.1240   -7.1280 C   0  0  0  0  0  0  0  0  0  0  0  0
   -4.4930   23.3640   -6.8370 C   0  0  2  0  0  0  0  0  0  0  0  0
   -4.8070   23.7590   -9.2440 C   0  0  0  0  0  0  0  0  0  0  0  0
   -5.2910   24.4440   -6.5480 O   0  0  0  0  0  0  0  0  0  0  0  0
    0.5360   15.3930   -2.9460 O   0  0  0  0  0  0  0  0  0  0  0  0
    1.0540   14.5500   -5.0020 C   0  0  1  0  0  0  0  0  0  0  0  0
   -4.9920   22.5950  -10.0040 O   0  0  0  0  0  0  0  0  0  0  0  0
    1.9660   13.5440   -4.6720 O   0  0  0  0  0  0  0  0  0  0  0  0
   -0.3300   14.0640   -4.6410 C   0  0  2  0  0  0  0  0  0  0  0  0
   -0.6350   14.8460   -3.4020 C   0  0  1  0  0  0  0  0  0  0  0  0
   -0.2220   12.6810   -4.4040 O   0  0  0  0  0  0  0  0  0  0  0  0
   -1.4550   14.1020   -2.4300 N   0  0  0  0  0  0  0  0  0  0  0  0
   -1.2830   14.4910   -1.0400 C   0  0  1  0  0  0  0  0  0  0  0  0
   -2.8150   14.5040   -2.7820 C   0  0  0  0  0  0  0  0  0  0  0  0
   -2.7460   14.3940   -0.5750 C   0  0  2  0  0  0  0  0  0  0  0  0
   -0.5330   13.6300   -0.2000 N   0  0  0  0  0  0  0  0  0  0  0  0
   -3.3930   15.1450   -1.6110 N   0  0  0  0  0  0  0  0  0  0  0  0
   -2.8380   14.9860    0.8050 C   0  0  1  0  0  0  0  0  0  0  0  0
   -0.6450   14.1040    1.1790 C   0  0  0  0  0  0  0  0  0  0  0  0
   -4.1980   15.1240    1.2820 N   0  0  0  0  0  0  0  0  0  0  0  0
   -2.0190   14.1400    1.6390 N   0  0  0  0  0  0  0  0  0  0  0  0
  1  2  1  0
  2  3  1  0
  1  4  2  0
  1  5  1  6
  1  6  1  0
  6  7  1  0
  3  8  1  1
  7  9  1  0
  7 10  1  0
  7 11  1  0
  3 12  1  0
  8 13  1  0
  9 14  1  0
 12 15  1  0
 12 16  1  1
 17 14  1  6
 16 18  1  0
 15 19  1  0
 18 19  1  0
 15 20  1  6
 19 21  1  6
 17 22  1  0
 17 23  1  0
 20 24  1  0
 23 25  1  1
 23 26  1  0
 22 27  1  0
 26 27  1  0
 26 28  1  1
 27 29  1  1
 29 30  1  0
 29 31  1  0
 30 32  1  0
 30 33  1  1
 31 34  1  0
 32 34  1  6
 32 35  1  0
 33 36  1  0
 35 37  1  1
 35 38  1  0
 36 38  1  0
M  CHG  1  10  -1
M  END
>  <%Rank>  (73) 
28.571429

>  <N_hits>  (73) 
2

>  <submitter_name>  (73) 
nan

>  <original SMILES>  (73) 
nan

>  <∆G_unbound>  (73) 
3.985558

>  <∆G_bound>  (73) 
-10.134505

>  <regarded>  (73) 
mArh-3ew5_C_0_C,mArh-2fav_B_0_B

>  <ref_pdb>  (73) 
nan

>  <smiles>  (73) 
NC1NCNC2C1NCN2C1OC(CO[PH]([O-])(O)OP(=O)(O)OC(CO)C2OCC(O)C2CO)C(O)C1O

>  <submitter_email>  (73) 
nan

>  <disregarded>  (73) 


>  <LE>  (73) 
-0.371581

>  <submitter_institution>  (73) 
nan

>  <ref_mols>  (73) 
mArh-3ew5_C_0_C,mArh-2fav_B_0_B

>  <N_constrained_atoms>  (73) 
37.0

>  <ref_url>  (73) 
nan

>  <method>  (73) 
nan

>  <comRMSD>  (73) 
0.657457

>  <N_unconstrained_atoms>  (73) 
1.0

>  <∆∆G>  (73) 
-14.120063

>  <runtime>  (73) 
50.641613

>  <generation_date>  (73) 
nan

$$$$
mArh-x0737_0_B-mArh-x0905_1_B
     RDKit          3D

 24 25  0  0  0  0  0  0  0  0999 V2000
   15.6950   15.9430   11.7730 N   0  0  0  0  0  0  0  0  0  0  0  0
   16.4970   17.0240   12.3120 C   0  0  0  0  0  0  0  0  0  0  0  0
   15.6110   18.0790   12.9710 C   0  0  0  0  0  0  0  0  0  0  0  0
   16.1130   14.6380   11.6370 C   0  0  0  0  0  0  0  0  0  0  0  0
   17.2910   14.3190   11.5400 O   0  0  0  0  0  0  0  0  0  0  0  0
   14.9680   13.6260   11.6230 C   0  0  2  0  0  0  0  0  0  0  0  0
   15.3840   19.2470   12.0180 C   0  0  0  0  0  0  0  0  0  0  0  0
   14.3620   13.5640   13.0140 C   0  0  2  0  0  0  0  0  0  0  0  0
   15.3100   12.4150   11.0340 C   0  0  0  0  0  0  0  0  0  0  0  0
   15.3850   13.5850   14.1510 C   0  0  0  0  0  0  0  0  0  0  0  0
   13.9890   19.4120   11.7610 O   0  0  0  0  0  0  0  0  0  0  0  0
   13.4870   12.3560   13.1500 N   0  0  0  0  0  0  0  0  0  0  0  0
   14.3230   11.4420   10.9500 C   0  0  0  0  0  0  0  0  0  0  0  0
   12.0260   12.6910   13.8420 S   0  0  0  0  0  0  0  0  0  0  0  0
   13.5480   11.1960   12.2180 C   0  0  0  0  0  0  0  0  0  0  0  0
   13.3560   20.2020   12.6950 C   0  0  0  0  0  0  0  0  0  0  0  0
   12.0230   14.1260   14.0200 O   0  0  0  0  0  0  0  0  0  0  0  0
   11.7570   11.7460   14.9020 O   0  0  0  0  0  0  0  0  0  0  0  0
   11.0390   12.2740   12.4520 C   0  0  0  0  0  0  0  0  0  0  0  0
   12.4450   19.6480   13.5210 N   0  0  0  0  0  0  0  0  0  0  0  0
   13.7100   21.5450   12.7220 C   0  0  0  0  0  0  0  0  0  0  0  0
   11.8630   20.4700   14.4100 C   0  0  0  0  0  0  0  0  0  0  0  0
   13.0870   22.3690   13.6550 C   0  0  0  0  0  0  0  0  0  0  0  0
   12.1440   21.8190   14.5170 C   0  0  0  0  0  0  0  0  0  0  0  0
  1  2  1  0
  2  3  1  0
  1  4  1  0
  4  5  2  0
  6  4  1  1
  3  7  1  0
  6  8  1  0
  6  9  1  0
  8 10  1  1
  7 11  1  0
  8 12  1  0
  9 13  1  0
 12 14  1  0
 12 15  1  0
 13 15  1  0
 11 16  1  0
 14 17  2  0
 14 18  2  0
 14 19  1  0
 16 20  2  0
 16 21  1  0
 20 22  1  0
 21 23  2  0
 22 24  2  0
 23 24  1  0
M  END
>  <%Rank>  (74) 
28.968254

>  <N_hits>  (74) 
2

>  <submitter_name>  (74) 
nan

>  <original SMILES>  (74) 
nan

>  <∆G_unbound>  (74) 
0.416879

>  <∆G_bound>  (74) 
-6.471649

>  <regarded>  (74) 
mArh-x0737_0_B,mArh-x0905_1_B

>  <ref_pdb>  (74) 
nan

>  <smiles>  (74) 
CC1C(C(=O)NCCCOc2ccccn2)CCCN1S(C)(=O)=O

>  <submitter_email>  (74) 
nan

>  <disregarded>  (74) 


>  <LE>  (74) 
-0.287022

>  <submitter_institution>  (74) 
nan

>  <ref_mols>  (74) 
mArh-x0737_0_B,mArh-x0905_1_B

>  <N_constrained_atoms>  (74) 
22.0

>  <ref_url>  (74) 
nan

>  <method>  (74) 
nan

>  <comRMSD>  (74) 
0.398372

>  <N_unconstrained_atoms>  (74) 
2.0

>  <∆∆G>  (74) 
-6.888527

>  <runtime>  (74) 
44.36762

>  <generation_date>  (74) 
nan

$$$$
mArh-5cb5_R_0_R-mArh-x0962_0_A
     RDKit          3D

 42 46  0  0  0  0  0  0  0  0999 V2000
   -1.4250   18.1350   -6.1040 P   0  0  1  0  0  0  0  0  0  0  0  0
   -0.2400   17.0870   -5.9060 O   0  0  0  0  0  0  0  0  0  0  0  0
    0.5440   17.1800   -4.7250 C   0  0  0  0  0  0  0  0  0  0  0  0
   -2.5860   17.6710   -6.8960 O   0  0  0  0  0  0  0  0  0  0  0  0
   -1.8520   18.5090   -4.6220 O   0  0  0  0  0  0  0  0  0  0  0  0
   -0.7970   19.5110   -6.4960 O   0  0  0  0  0  0  0  0  0  0  0  0
   -0.1650   19.9450   -7.8580 P   0  0  1  0  0  0  0  0  0  0  0  0
    1.0470   20.8150   -7.6870 O   0  0  0  0  0  0  0  0  0  0  0  0
    0.1160   18.6140   -8.7050 O   0  0  0  0  0  0  0  0  0  0  0  0
   -1.3510   20.5930   -8.7010 O   0  0  0  0  0  0  0  0  0  0  0  0
    0.8620   15.7910   -4.1220 C   0  0  1  0  0  0  0  0  0  0  0  0
   -2.0980   21.5840   -8.0210 C   0  0  0  0  0  0  0  0  0  0  0  0
    0.1050   15.5710   -2.8990 O   0  0  0  0  0  0  0  0  0  0  0  0
    0.5020   14.6120   -5.0160 C   0  0  1  0  0  0  0  0  0  0  0  0
    1.4380   13.5410   -4.8190 O   0  0  0  0  0  0  0  0  0  0  0  0
   -0.8740   14.1500   -4.5490 C   0  0  2  0  0  0  0  0  0  0  0  0
   -1.1470   14.9360   -3.2380 C   0  0  1  0  0  0  0  0  0  0  0  0
   -3.4190   21.8800   -8.7240 C   0  0  2  0  0  0  0  0  0  0  0  0
   -0.8700   12.7220   -4.4420 O   0  0  0  0  0  0  0  0  0  0  0  0
   -3.8680   23.3110   -8.4570 C   0  0  1  0  0  0  0  0  0  0  0  0
   -4.4790   21.0370   -8.2380 O   0  0  0  0  0  0  0  0  0  0  0  0
   -1.7890   14.1570   -2.1560 N   0  0  0  0  0  0  0  0  0  0  0  0
   -4.7350   23.8620   -9.4390 O   0  0  0  0  0  0  0  0  0  0  0  0
   -5.2230   21.7750   -7.2650 C   0  0  2  0  0  0  0  0  0  0  0  0
   -4.5300   23.1310   -7.0930 C   0  0  2  0  0  0  0  0  0  0  0  0
   -1.4240   14.3120   -0.7530 C   0  0  2  0  0  0  0  0  0  0  0  0
   -3.2400   14.3870   -2.0760 C   0  0  1  0  0  0  0  0  0  0  0  0
   -5.1980   21.0760   -6.0340 O   0  0  0  0  0  0  0  0  0  0  0  0
   -5.4590   24.1540   -6.7200 O   0  0  0  0  0  0  0  0  0  0  0  0
   -2.5380   15.0170    0.0200 C   0  0  1  0  0  0  0  0  0  0  0  0
   -0.2140   14.9580   -0.4280 N   0  0  0  0  0  0  0  0  0  0  0  0
   -3.6440   15.1410   -0.8780 N   0  0  0  0  0  0  0  0  0  0  0  0
   -3.4670   15.0030   -3.3370 N   0  0  0  0  0  0  0  0  0  0  0  0
   -2.5210   14.2850    1.2880 C   0  0  2  0  0  0  0  0  0  0  0  0
    0.0020   14.5860    0.9620 C   0  0  0  0  0  0  0  0  0  0  0  0
   -4.7810   14.9770   -0.2380 C   0  0  0  0  0  0  0  0  0  0  0  0
   -3.3180   14.9530    2.2800 N   0  0  0  0  0  0  0  0  0  0  0  0
   -1.1690   14.4110    1.8310 N   0  0  0  0  0  0  0  0  0  0  0  0
   -4.7290   15.0490    1.1210 N   0  0  0  0  0  0  0  0  0  0  0  0
   -6.0910   14.7370   -0.5190 C   0  0  0  0  0  0  0  0  0  0  0  0
   -5.9650   14.8490    1.6090 C   0  0  0  0  0  0  0  0  0  0  0  0
   -6.8240   14.6560    0.6410 N   0  0  0  0  0  0  0  0  0  0  0  0
  1  2  1  0
  2  3  1  0
  1  4  2  0
  1  5  1  1
  1  6  1  0
  6  7  1  0
  7  8  2  0
  7  9  1  6
  7 10  1  0
 11  3  1  6
 10 12  1  0
 11 13  1  0
 11 14  1  0
 14 15  1  1
 14 16  1  0
 13 17  1  0
 16 17  1  0
 18 12  1  1
 16 19  1  1
 18 20  1  0
 18 21  1  0
 17 22  1  1
 20 23  1  6
 21 24  1  0
 20 25  1  0
 24 25  1  0
 22 26  1  0
 22 27  1  0
 24 28  1  1
 25 29  1  6
 26 30  1  0
 26 31  1  6
 27 32  1  0
 30 32  1  6
 27 33  1  6
 30 34  1  0
 31 35  1  0
 32 36  1  0
 34 37  1  1
 34 38  1  0
 35 38  1  0
 36 39  1  0
 36 40  2  0
 39 41  1  0
 40 42  1  0
 41 42  2  0
M  END
>  <%Rank>  (75) 
29.365079

>  <N_hits>  (75) 
2

>  <submitter_name>  (75) 
nan

>  <original SMILES>  (75) 
nan

>  <∆G_unbound>  (75) 
5.026375

>  <∆G_bound>  (75) 
-8.440956

>  <regarded>  (75) 
mArh-5cb5_R_0_R,mArh-x0962_0_A

>  <ref_pdb>  (75) 
nan

>  <smiles>  (75) 
NC1NCNC2C1N(c1cnc[nH]1)C(N)N2C1OC(CO[P@@](=O)(O)O[P@@](=O)(O)OCC2OC(O)C(O)C2O)C(O)C1O

>  <submitter_email>  (75) 
nan

>  <disregarded>  (75) 


>  <LE>  (75) 
-0.320651

>  <submitter_institution>  (75) 
nan

>  <ref_mols>  (75) 
mArh-5cb5_R_0_R,mArh-x0962_0_A

>  <N_constrained_atoms>  (75) 
42.0

>  <ref_url>  (75) 
nan

>  <method>  (75) 
nan

>  <comRMSD>  (75) 
0.696345

>  <N_unconstrained_atoms>  (75) 
0.0

>  <∆∆G>  (75) 
-13.467331

>  <runtime>  (75) 
71.420957

>  <generation_date>  (75) 
nan

$$$$
mArh-4iqy_A_0_A-mArh-x0852_0_B
     RDKit          3D

 49 53  0  0  0  0  0  0  0  0999 V2000
   -1.4400   18.0640   -5.9440 P   0  0  2  0  0  0  0  0  0  0  0  0
   -0.0620   17.3280   -6.2870 O   0  0  0  0  0  0  0  0  0  0  0  0
    0.7190   16.7390   -5.2550 C   0  0  0  0  0  0  0  0  0  0  0  0
   -1.8900   18.0690   -4.5450 O   0  0  0  0  0  0  0  0  0  0  0  0
   -2.5280   17.3630   -6.8760 O   0  0  0  0  0  0  0  0  0  0  0  0
   -1.2840   19.4930   -6.5550 O   0  0  0  0  0  0  0  0  0  0  0  0
   -0.4170   19.8480   -7.8350 P   0  0  1  0  0  0  0  0  0  0  0  0
    0.8500   20.5740   -7.5720 O   0  0  0  0  0  0  0  0  0  0  0  0
   -0.2280   18.5170   -8.7000 O   0  0  0  0  0  0  0  0  0  0  0  0
   -1.4780   20.6400   -8.7000 O   0  0  0  0  0  0  0  0  0  0  0  0
   -0.1050   15.6130   -4.6540 C   0  0  2  0  0  0  0  0  0  0  0  0
   -2.1660   21.6560   -7.9960 C   0  0  0  0  0  0  0  0  0  0  0  0
   -0.2750   15.6900   -3.2470 O   0  0  0  0  0  0  0  0  0  0  0  0
    0.2650   14.1440   -4.8510 C   0  0  1  0  0  0  0  0  0  0  0  0
    1.5670   13.8280   -4.3140 O   0  0  0  0  0  0  0  0  0  0  0  0
   -0.7870   13.4840   -3.9360 C   0  0  2  0  0  0  0  0  0  0  0  0
   -1.3330   14.7280   -3.2100 C   0  0  1  0  0  0  0  0  0  0  0  0
   -3.5900   21.8330   -8.5090 C   0  0  2  0  0  0  0  0  0  0  0  0
   -0.1890   12.5020   -3.0970 O   0  0  0  0  0  0  0  0  0  0  0  0
   -4.1210   23.2560   -8.3240 C   0  0  1  0  0  0  0  0  0  0  0  0
   -4.4510   20.9080   -7.8140 O   0  0  0  0  0  0  0  0  0  0  0  0
   -2.1140   14.8180   -1.9910 N   0  0  0  0  0  0  0  0  0  0  0  0
   -4.4330   23.9540   -9.5200 O   0  0  0  0  0  0  0  0  0  0  0  0
   -5.5720   21.6040   -7.2720 C   0  0  1  0  0  0  0  0  0  0  0  0
   -5.4210   23.1050   -7.5480 C   0  0  1  0  0  0  0  0  0  0  0  0
   -1.8510   14.7630   -0.6460 C   0  0  0  0  0  0  0  0  0  0  0  0
   -3.4650   15.0280   -2.1300 C   0  0  0  0  0  0  0  0  0  0  0  0
   -6.7200   21.0830   -7.9470 O   0  0  0  0  0  0  0  0  0  0  0  0
   -5.5080   23.9570   -6.4090 O   0  0  0  0  0  0  0  0  0  0  0  0
   -3.1170   14.9580   -0.0620 C   0  0  0  0  0  0  0  0  0  0  0  0
   -0.6900   14.5810   -0.0020 N   0  0  0  0  0  0  0  0  0  0  0  0
   -4.0920   15.1180   -0.9970 N   0  0  0  0  0  0  0  0  0  0  0  0
   -3.2320   14.9700    1.3190 C   0  0  0  0  0  0  0  0  0  0  0  0
   -0.8830   14.5940    1.3250 C   0  0  0  0  0  0  0  0  0  0  0  0
   -4.4970   15.1940    1.9750 N   0  0  0  0  0  0  0  0  0  0  0  0
   -2.0550   14.7670    1.9960 N   0  0  0  0  0  0  0  0  0  0  0  0
   -5.8890   14.7070    1.5900 C   0  0  0  0  0  0  0  0  0  0  0  0
   -6.4500   13.2850    2.0460 C   0  0  0  0  0  0  0  0  0  0  0  0
   -7.2030   13.0280    3.4670 C   0  0  0  0  0  0  0  0  0  0  0  0
   -7.5080   14.1290    4.4200 O   0  0  0  0  0  0  0  0  0  0  0  0
   -8.3100   14.9920    3.8160 C   0  0  0  0  0  0  0  0  0  0  0  0
   -8.4510   14.7050    2.4890 C   0  0  0  0  0  0  0  0  0  0  0  0
   -8.9880   16.1060    4.3920 C   0  0  0  0  0  0  0  0  0  0  0  0
   -8.9830   16.5440    5.7750 C   0  0  0  0  0  0  0  0  0  0  0  0
   -9.2180   15.4460    1.6650 C   0  0  0  0  0  0  0  0  0  0  0  0
   -9.7680   16.8740    3.5240 C   0  0  0  0  0  0  0  0  0  0  0  0
   -9.1280   16.9060    6.8760 N   0  0  0  0  0  0  0  0  0  0  0  0
   -9.8750   16.5230    2.1570 C   0  0  0  0  0  0  0  0  0  0  0  0
  -10.8900   17.4370    0.8530 Br  0  0  0  0  0  0  0  0  0  0  0  0
  1  2  1  0
  2  3  1  0
  1  4  2  0
  1  5  1  6
  1  6  1  0
  6  7  1  0
  7  8  2  0
  7  9  1  6
  7 10  1  0
 11  3  1  1
 10 12  1  0
 11 13  1  0
 11 14  1  0
 14 15  1  1
 14 16  1  0
 13 17  1  0
 16 17  1  0
 18 12  1  1
 16 19  1  1
 18 20  1  0
 18 21  1  0
 17 22  1  1
 20 23  1  6
 21 24  1  0
 20 25  1  0
 24 25  1  0
 22 26  1  0
 22 27  1  0
 24 28  1  6
 25 29  1  1
 26 30  2  0
 26 31  1  0
 27 32  2  0
 30 32  1  0
 30 33  1  0
 31 34  2  0
 33 35  1  0
 33 36  2  0
 34 36  1  0
 35 37  1  0
 37 38  1  0
 38 39  1  0
 39 40  1  0
 40 41  1  0
 41 42  2  0
 41 43  1  0
 43 44  1  0
 42 45  1  0
 43 46  2  0
 44 47  3  0
 45 48  2  0
 46 48  1  0
 48 49  1  0
M  END
>  <%Rank>  (76) 
29.761905

>  <N_hits>  (76) 
2

>  <submitter_name>  (76) 
nan

>  <original SMILES>  (76) 
nan

>  <∆G_unbound>  (76) 
7.645433

>  <∆G_bound>  (76) 
-16.392051

>  <regarded>  (76) 
mArh-4iqy_A_0_A,mArh-x0852_0_B

>  <ref_pdb>  (76) 
nan

>  <smiles>  (76) 
N#Cc1cc(Br)ccc1OCCCNc1ncnc2c1ncn2C1OC(CO[P@](=O)(O)O[P@@](=O)(O)OCC2OC(O)C(O)C2O)C(O)C1O

>  <submitter_email>  (76) 
nan

>  <disregarded>  (76) 


>  <LE>  (76) 
-0.490561

>  <submitter_institution>  (76) 
nan

>  <ref_mols>  (76) 
mArh-4iqy_A_0_A,mArh-x0852_0_B

>  <N_constrained_atoms>  (76) 
46.0

>  <ref_url>  (76) 
nan

>  <method>  (76) 
nan

>  <comRMSD>  (76) 
0.781446

>  <N_unconstrained_atoms>  (76) 
3.0

>  <∆∆G>  (76) 
-24.037484

>  <runtime>  (76) 
78.127595

>  <generation_date>  (76) 
nan

$$$$
mArh-x1015_0_A-mArh-x0711_0_A
     RDKit          3D

 27 29  0  0  0  0  0  0  0  0999 V2000
   -1.1660   14.3730   -3.9260 C   0  0  1  0  0  0  0  0  0  0  0  0
   -1.5530   14.9780   -2.6300 N   0  0  0  0  0  0  0  0  0  0  0  0
   -2.7220   14.8830   -1.8620 C   0  0  0  0  0  0  0  0  0  0  0  0
   -2.3120   13.4610   -4.4030 C   0  0  0  0  0  0  0  0  0  0  0  0
   -1.0390   15.4320   -4.8370 O   0  0  0  0  0  0  0  0  0  0  0  0
    0.1620   13.6350   -3.8560 C   0  0  2  0  0  0  0  0  0  0  0  0
    0.0700   12.1740   -3.8810 N   0  0  0  0  0  0  0  0  0  0  0  0
    0.6980   13.8520   -2.4570 C   0  0  0  0  0  0  0  0  0  0  0  0
    1.0900   14.9010   -1.9780 O   0  0  0  0  0  0  0  0  0  0  0  0
    0.3500   11.6430   -2.6150 C   0  0  0  0  0  0  0  0  0  0  0  0
    0.6700   12.6730   -1.7900 N   0  0  0  0  0  0  0  0  0  0  0  0
   -0.3640   11.4110   -4.9950 C   0  0  0  0  0  0  0  0  0  0  0  0
   -3.9570   15.1620   -2.4750 C   0  0  0  0  0  0  0  0  0  0  0  0
   -2.7520   14.5330   -0.5030 C   0  0  0  0  0  0  0  0  0  0  0  0
    0.3300   10.4630   -2.2620 O   0  0  0  0  0  0  0  0  0  0  0  0
    0.1870   11.6530   -6.2590 C   0  0  0  0  0  0  0  0  0  0  0  0
   -1.3460   10.4170   -4.8090 C   0  0  0  0  0  0  0  0  0  0  0  0
   -5.1650   15.0940   -1.7660 C   0  0  0  0  0  0  0  0  0  0  0  0
   -3.9540   14.4610    0.2160 C   0  0  0  0  0  0  0  0  0  0  0  0
   -0.2110   10.9240   -7.3710 C   0  0  0  0  0  0  0  0  0  0  0  0
   -1.9030    9.5360   -5.8520 C   0  0  0  0  0  0  0  0  0  0  0  0
   -5.1670   14.7390   -0.4130 C   0  0  0  0  0  0  0  0  0  0  0  0
   -6.4290   14.6460    0.3730 C   0  0  0  0  0  0  0  0  0  0  0  0
   -1.2590    9.8470   -7.2170 C   0  0  0  0  0  0  0  0  0  0  0  0
   -1.7520    8.9410   -8.5920 Cl  0  0  0  0  0  0  0  0  0  0  0  0
   -6.3760   14.7280    1.7440 N   0  0  0  0  0  0  0  0  0  0  0  0
   -7.5100   14.5040   -0.1880 O   0  0  0  0  0  0  0  0  0  0  0  0
  1  2  1  0
  2  3  1  0
  1  4  1  6
  1  5  1  0
  1  6  1  0
  6  7  1  0
  6  8  1  1
  8  9  2  0
  7 10  1  0
  8 11  1  0
 10 11  1  0
  7 12  1  0
  3 13  2  0
  3 14  1  0
 10 15  2  0
 12 16  2  0
 12 17  1  0
 13 18  1  0
 14 19  2  0
 16 20  1  0
 17 21  2  0
 18 22  2  0
 19 22  1  0
 22 23  1  0
 20 24  2  0
 21 24  1  0
 24 25  1  0
 23 26  1  0
 23 27  2  0
M  END
>  <%Rank>  (77) 
30.15873

>  <N_hits>  (77) 
2

>  <submitter_name>  (77) 
nan

>  <original SMILES>  (77) 
nan

>  <∆G_unbound>  (77) 
-0.045452

>  <∆G_bound>  (77) 
-6.712879

>  <regarded>  (77) 
mArh-x1015_0_A,mArh-x0711_0_A

>  <ref_pdb>  (77) 
nan

>  <smiles>  (77) 
CC(O)(Nc1ccc(C(N)=O)cc1)C1C(=O)NC(=O)N1c1ccc(Cl)cc1

>  <submitter_email>  (77) 
nan

>  <disregarded>  (77) 


>  <LE>  (77) 
-0.246942

>  <submitter_institution>  (77) 
nan

>  <ref_mols>  (77) 
mArh-x1015_0_A,mArh-x0711_0_A

>  <N_constrained_atoms>  (77) 
27.0

>  <ref_url>  (77) 
nan

>  <method>  (77) 
nan

>  <comRMSD>  (77) 
0.509982

>  <N_unconstrained_atoms>  (77) 
0.0

>  <∆∆G>  (77) 
-6.667427

>  <runtime>  (77) 
24.718179

>  <generation_date>  (77) 
nan

$$$$
mArh-x0967_0_A-mArh-5fud_B_0_B
     RDKit          3D

 27 29  0  0  0  0  0  0  0  0999 V2000
   -0.7640   19.0350   -6.4260 N   0  0  0  0  0  0  0  0  0  0  0  0
   -0.3780   19.7640   -7.9100 S   0  0  1  0  0  0  0  0  0  0  0  0
    0.6580   20.7460   -7.6910 O   0  0  0  0  0  0  0  0  0  0  0  0
    0.3000   18.2380   -5.7660 C   0  0  0  0  0  0  0  0  0  0  0  0
   -0.1740   18.6710   -8.8610 O   0  0  0  0  0  0  0  0  0  0  0  0
   -1.9070   20.6300   -8.2690 C   0  0  0  0  0  0  0  0  0  0  0  0
   -0.1370   17.7160   -4.3830 C   0  0  0  0  0  0  0  0  0  0  0  0
   -2.1190   22.0400   -7.7750 C   0  0  0  0  0  0  0  0  0  0  0  0
   -1.3850   16.8060   -4.3660 C   0  0  0  0  0  0  0  0  0  0  0  0
   -1.5720   15.9010   -3.1190 C   0  0  0  0  0  0  0  0  0  0  0  0
   -3.5800   22.3650   -7.8390 N   0  0  0  0  0  0  0  0  0  0  0  0
   -2.9940   15.3170   -3.0520 C   0  0  0  0  0  0  0  0  0  0  0  0
   -4.0800   22.6060   -9.0630 C   0  0  0  0  0  0  0  0  0  0  0  0
   -3.8930   23.5600   -7.0400 C   0  0  0  0  0  0  0  0  0  0  0  0
   -3.6540   15.2220   -1.7180 C   0  0  0  0  0  0  0  0  0  0  0  0
   -5.6190   22.7770   -9.0930 C   0  0  0  0  0  0  0  0  0  0  0  0
   -5.3940   23.7890   -6.9390 C   0  0  0  0  0  0  0  0  0  0  0  0
   -4.9890   14.9620   -1.7620 N   0  0  0  0  0  0  0  0  0  0  0  0
   -2.9440   15.3870   -0.5210 C   0  0  0  0  0  0  0  0  0  0  0  0
   -6.0530   23.8320   -8.2260 O   0  0  0  0  0  0  0  0  0  0  0  0
   -5.6930   14.8470   -0.6410 C   0  0  0  0  0  0  0  0  0  0  0  0
   -3.6320   15.2770    0.6910 C   0  0  0  0  0  0  0  0  0  0  0  0
   -7.0080   14.5890   -0.7260 N   0  0  0  0  0  0  0  0  0  0  0  0
   -5.0050   15.0070    0.6750 C   0  0  0  0  0  0  0  0  0  0  0  0
   -5.7730   14.8770    1.8340 C   0  0  0  0  0  0  0  0  0  0  0  0
   -7.7490   14.4640    0.4050 C   0  0  0  0  0  0  0  0  0  0  0  0
   -7.2500   14.5830    1.6920 C   0  0  0  0  0  0  0  0  0  0  0  0
  1  2  2  0
  2  3  2  0
  1  4  1  0
  2  5  1  6
  2  6  1  0
  4  7  1  0
  6  8  1  0
  7  9  1  0
  9 10  1  0
  8 11  1  0
 10 12  1  0
 11 13  1  0
 11 14  1  0
 12 15  1  0
 13 16  1  0
 14 17  1  0
 15 18  2  0
 15 19  1  0
 16 20  1  0
 17 20  1  0
 18 21  1  0
 19 22  2  0
 21 23  2  0
 21 24  1  0
 22 24  1  0
 24 25  2  0
 23 26  1  0
 25 27  1  0
 26 27  2  0
M  CHG  1   5  -1
M  END
>  <%Rank>  (78) 
30.555556

>  <N_hits>  (78) 
2

>  <submitter_name>  (78) 
nan

>  <original SMILES>  (78) 
nan

>  <∆G_unbound>  (78) 
0.553763

>  <∆G_bound>  (78) 
-18.153302

>  <regarded>  (78) 
mArh-x0967_0_A,mArh-5fud_B_0_B

>  <ref_pdb>  (78) 
nan

>  <smiles>  (78) 
O=S([O-])(CCN1CCOCC1)=NCCCCCc1ccc2cccnc2n1

>  <submitter_email>  (78) 
nan

>  <disregarded>  (78) 


>  <LE>  (78) 
-0.692854

>  <submitter_institution>  (78) 
nan

>  <ref_mols>  (78) 
mArh-x0967_0_A,mArh-5fud_B_0_B

>  <N_constrained_atoms>  (78) 
22.0

>  <ref_url>  (78) 
nan

>  <method>  (78) 
nan

>  <comRMSD>  (78) 
0.551435

>  <N_unconstrained_atoms>  (78) 
5.0

>  <∆∆G>  (78) 
-18.707065

>  <runtime>  (78) 
33.613047

>  <generation_date>  (78) 
nan

$$$$
mArh-4iqy_B_0_B-mArh-x0592_0_A
     RDKit          3D

 46 50  0  0  0  0  0  0  0  0999 V2000
   -1.4690   18.0430   -5.9760 P   0  0  2  0  0  0  0  0  0  0  0  0
   -0.0990   17.2890   -6.3560 O   0  0  0  0  0  0  0  0  0  0  0  0
    0.7760   16.7600   -5.3610 C   0  0  0  0  0  0  0  0  0  0  0  0
   -1.8750   18.0340   -4.5640 O   0  0  0  0  0  0  0  0  0  0  0  0
   -2.5780   17.3000   -6.8510 O   0  0  0  0  0  0  0  0  0  0  0  0
   -1.3610   19.4320   -6.6750 O   0  0  0  0  0  0  0  0  0  0  0  0
   -0.3590   19.7920   -7.8500 P   0  0  1  0  0  0  0  0  0  0  0  0
    0.9050   20.4900   -7.5280 O   0  0  0  0  0  0  0  0  0  0  0  0
   -0.1750   18.4790   -8.7350 O   0  0  0  0  0  0  0  0  0  0  0  0
   -1.3840   20.5830   -8.7380 O   0  0  0  0  0  0  0  0  0  0  0  0
    0.0710   15.5750   -4.7470 C   0  0  2  0  0  0  0  0  0  0  0  0
   -2.0220   21.6680   -8.1120 C   0  0  0  0  0  0  0  0  0  0  0  0
   -0.0100   15.6260   -3.3440 O   0  0  0  0  0  0  0  0  0  0  0  0
    0.4810   14.1190   -5.0040 C   0  0  1  0  0  0  0  0  0  0  0  0
    1.7690   13.7720   -4.5060 O   0  0  0  0  0  0  0  0  0  0  0  0
   -0.5990   13.4540   -4.1320 C   0  0  2  0  0  0  0  0  0  0  0  0
   -1.0570   14.6560   -3.2940 C   0  0  1  0  0  0  0  0  0  0  0  0
   -3.4220   21.8920   -8.6590 C   0  0  2  0  0  0  0  0  0  0  0  0
   -0.0430   12.3910   -3.3310 O   0  0  0  0  0  0  0  0  0  0  0  0
   -3.9440   23.2490   -8.2390 C   0  0  1  0  0  0  0  0  0  0  0  0
   -4.2920   20.9330   -8.0110 O   0  0  0  0  0  0  0  0  0  0  0  0
   -1.6870   14.6910   -2.0300 N   0  0  0  0  0  0  0  0  0  0  0  0
   -4.7810   23.8480   -9.2400 O   0  0  0  0  0  0  0  0  0  0  0  0
   -5.1210   21.5930   -7.0520 C   0  0  1  0  0  0  0  0  0  0  0  0
   -4.7060   23.0700   -6.9440 C   0  0  2  0  0  0  0  0  0  0  0  0
   -1.2650   14.6760   -0.7290 C   0  0  0  0  0  0  0  0  0  0  0  0
   -3.0860   14.7900   -2.0740 C   0  0  0  0  0  0  0  0  0  0  0  0
   -6.4520   21.4820   -7.5120 O   0  0  0  0  0  0  0  0  0  0  0  0
   -5.7810   23.9910   -6.7920 O   0  0  0  0  0  0  0  0  0  0  0  0
   -2.4570   14.7940   -0.0870 C   0  0  0  0  0  0  0  0  0  0  0  0
   -0.0750   14.5970   -0.1090 N   0  0  0  0  0  0  0  0  0  0  0  0
   -3.5400   14.8520   -0.8840 N   0  0  0  0  0  0  0  0  0  0  0  0
   -2.4240   14.8590    1.3760 C   0  0  0  0  0  0  0  0  0  0  0  0
   -0.2170   14.6430    1.2550 C   0  0  0  0  0  0  0  0  0  0  0  0
   -3.6730   15.0500    1.7420 N   0  0  0  0  0  0  0  0  0  0  0  0
   -1.3030   14.7610    2.0270 N   0  0  0  0  0  0  0  0  0  0  0  0
   -4.2690   15.4260    0.5840 C   0  0  0  0  0  0  0  0  0  0  0  0
   -3.6070   16.0540   -0.2240 O   0  0  0  0  0  0  0  0  0  0  0  0
   -5.5680   15.1020    0.2560 C   0  0  0  0  0  0  0  0  0  0  0  0
   -6.2380   15.2120   -0.9760 C   0  0  0  0  0  0  0  0  0  0  0  0
   -6.4540   14.6070    1.1220 C   0  0  0  0  0  0  0  0  0  0  0  0
   -7.5060   14.8080   -0.8720 N   0  0  0  0  0  0  0  0  0  0  0  0
   -7.5820   14.4570    0.4330 N   0  0  0  0  0  0  0  0  0  0  0  0
   -8.7640   13.9700    1.0530 C   0  0  0  0  0  0  0  0  0  0  0  0
   -8.4810   13.7900    2.5520 C   0  0  0  0  0  0  0  0  0  0  0  0
   -7.6480   14.8430    3.0650 O   0  0  0  0  0  0  0  0  0  0  0  0
  1  2  1  0
  2  3  1  0
  1  4  2  0
  1  5  1  6
  1  6  1  0
  6  7  1  0
  7  8  2  0
  7  9  1  6
  7 10  1  0
 11  3  1  1
 10 12  1  0
 11 13  1  0
 11 14  1  0
 14 15  1  1
 14 16  1  0
 13 17  1  0
 16 17  1  0
 18 12  1  1
 16 19  1  1
 18 20  1  0
 18 21  1  0
 17 22  1  1
 20 23  1  6
 21 24  1  0
 20 25  1  0
 24 25  1  0
 22 26  1  0
 22 27  1  0
 24 28  1  6
 25 29  1  6
 26 30  2  0
 26 31  1  0
 27 32  2  0
 30 32  1  0
 30 33  1  0
 31 34  2  0
 33 35  1  0
 33 36  2  0
 34 36  1  0
 35 37  1  0
 37 38  2  0
 37 39  1  0
 39 40  1  0
 39 41  2  0
 40 42  2  0
 41 43  1  0
 42 43  1  0
 43 44  1  0
 44 45  1  0
 45 46  1  0
M  END
>  <%Rank>  (79) 
30.952381

>  <N_hits>  (79) 
2

>  <submitter_name>  (79) 
nan

>  <original SMILES>  (79) 
nan

>  <∆G_unbound>  (79) 
4.481583

>  <∆G_bound>  (79) 
-10.064327

>  <regarded>  (79) 
mArh-4iqy_B_0_B,mArh-x0592_0_A

>  <ref_pdb>  (79) 
nan

>  <smiles>  (79) 
O=C(Nc1ncnc2c1ncn2C1OC(CO[P@](=O)(O)O[P@@](=O)(O)OCC2OC(O)C(O)C2O)C(O)C1O)c1cnn(CCO)c1

>  <submitter_email>  (79) 
nan

>  <disregarded>  (79) 


>  <LE>  (79) 
-0.316215

>  <submitter_institution>  (79) 
nan

>  <ref_mols>  (79) 
mArh-4iqy_B_0_B,mArh-x0592_0_A

>  <N_constrained_atoms>  (79) 
46.0

>  <ref_url>  (79) 
nan

>  <method>  (79) 
nan

>  <comRMSD>  (79) 
0.73934

>  <N_unconstrained_atoms>  (79) 
0.0

>  <∆∆G>  (79) 
-14.54591

>  <runtime>  (79) 
64.043111

>  <generation_date>  (79) 
nan

$$$$
mArh-5cms_Q_16_Q-mArh-x0926_0_A
     RDKit          3D

 37 40  0  0  0  0  0  0  0  0999 V2000
   -1.6950   17.8290   -5.8500 P   0  0  1  0  0  0  0  0  0  0  0  0
   -0.1160   17.6870   -5.4650 O   0  0  0  0  0  0  0  0  0  0  0  0
    0.6060   16.4690   -5.2430 C   0  0  0  0  0  0  0  0  0  0  0  0
   -2.6240   16.6650   -5.7620 O   0  0  0  0  0  0  0  0  0  0  0  0
   -2.1630   19.1130   -5.0150 O   0  0  0  0  0  0  0  0  0  0  0  0
   -1.7080   18.3970   -7.3110 O   0  0  0  0  0  0  0  0  0  0  0  0
   -0.6470   19.4680   -7.7710 P   0  0  1  0  0  0  0  0  0  0  0  0
    0.7480   18.9640   -7.7000 O   0  0  0  0  0  0  0  0  0  0  0  0
   -1.0990   19.8170   -9.2190 O   0  0  0  0  0  0  0  0  0  0  0  0
   -0.9900   20.8350   -7.0230 O   0  0  0  0  0  0  0  0  0  0  0  0
   -0.3080   15.3240   -4.8790 C   0  0  2  0  0  0  0  0  0  0  0  0
   -1.1750   22.1000   -7.6830 C   0  0  0  0  0  0  0  0  0  0  0  0
   -0.6120   15.4990   -3.5120 O   0  0  0  0  0  0  0  0  0  0  0  0
    0.0720   13.8240   -4.9650 C   0  0  1  0  0  0  0  0  0  0  0  0
    1.4560   13.5550   -4.6980 O   0  0  0  0  0  0  0  0  0  0  0  0
   -0.7440   13.2300   -3.7870 C   0  0  1  0  0  0  0  0  0  0  0  0
   -1.5670   14.4590   -3.4140 C   0  0  1  0  0  0  0  0  0  0  0  0
   -1.0050   22.1090   -9.2060 C   0  0  2  0  0  0  0  0  0  0  0  0
   -1.5470   12.1260   -4.2040 O   0  0  0  0  0  0  0  0  0  0  0  0
   -0.7240   23.4980   -9.8070 C   0  0  1  0  0  0  0  0  0  0  0  0
   -2.1990   21.5930   -9.8660 O   0  0  0  0  0  0  0  0  0  0  0  0
   -2.3560   14.6990   -2.2190 N   0  0  0  0  0  0  0  0  0  0  0  0
    0.3900   23.4680  -10.7010 O   0  0  0  0  0  0  0  0  0  0  0  0
   -2.4160   22.3940  -11.0180 C   0  0  2  0  0  0  0  0  0  0  0  0
   -1.9920   23.7850  -10.5910 C   0  0  2  0  0  0  0  0  0  0  0  0
   -1.9830   14.7730   -0.8680 C   0  0  0  0  0  0  0  0  0  0  0  0
   -3.6990   14.9340   -2.2200 C   0  0  0  0  0  0  0  0  0  0  0  0
   -3.7960   22.4250  -11.3530 O   0  0  0  0  0  0  0  0  0  0  0  0
   -1.7220   24.6480  -11.7070 O   0  0  0  0  0  0  0  0  0  0  0  0
   -3.1080   15.0790   -0.0750 C   0  0  0  0  0  0  0  0  0  0  0  0
   -0.7420   14.6010   -0.3500 N   0  0  0  0  0  0  0  0  0  0  0  0
   -4.1650   15.1680   -0.8890 N   0  0  0  0  0  0  0  0  0  0  0  0
   -5.3980   15.4070   -0.7020 O   0  0  0  0  0  0  0  0  0  0  0  0
   -2.9890   15.2360    1.2740 C   0  0  0  0  0  0  0  0  0  0  0  0
   -0.7260   14.7550    0.9930 C   0  0  0  0  0  0  0  0  0  0  0  0
   -4.0490   15.5710    2.0800 N   0  0  0  0  0  0  0  0  0  0  0  0
   -1.7630   15.0560    1.8090 N   0  0  0  0  0  0  0  0  0  0  0  0
  1  2  1  0
  2  3  1  0
  1  4  2  0
  1  5  1  1
  1  6  1  0
  6  7  1  0
  7  8  2  0
  7  9  1  6
  7 10  1  0
 11  3  1  1
 10 12  1  0
 11 13  1  0
 11 14  1  0
 14 15  1  1
 14 16  1  0
 13 17  1  0
 16 17  1  0
 18 12  1  1
 16 19  1  6
 18 20  1  0
 18 21  1  0
 17 22  1  1
 20 23  1  6
 21 24  1  0
 20 25  1  0
 24 25  1  0
 22 26  1  0
 22 27  1  0
 24 28  1  1
 25 29  1  6
 26 30  2  0
 26 31  1  0
 27 32  2  0
 30 32  1  0
 32 33  1  0
 30 34  1  0
 31 35  2  0
 34 36  1  0
 34 37  2  0
 35 37  1  0
M  CHG  2  32   1  33  -1
M  END
>  <%Rank>  (80) 
31.349206

>  <N_hits>  (80) 
2

>  <submitter_name>  (80) 
nan

>  <original SMILES>  (80) 
nan

>  <∆G_unbound>  (80) 
4.127158

>  <∆G_bound>  (80) 
-10.828811

>  <regarded>  (80) 
mArh-5cms_Q_16_Q,mArh-x0926_0_A

>  <ref_pdb>  (80) 
nan

>  <smiles>  (80) 
Nc1ncnc2c1[n+]([O-])cn2C1OC(CO[P@@](=O)(O)O[P@@](=O)(O)OCC2OC(O)C(O)C2O)C(O)C1O

>  <submitter_email>  (80) 
nan

>  <disregarded>  (80) 


>  <LE>  (80) 
-0.404215

>  <submitter_institution>  (80) 
nan

>  <ref_mols>  (80) 
mArh-5cms_Q_16_Q,mArh-x0926_0_A

>  <N_constrained_atoms>  (80) 
37.0

>  <ref_url>  (80) 
nan

>  <method>  (80) 
nan

>  <comRMSD>  (80) 
0.716108

>  <N_unconstrained_atoms>  (80) 
0.0

>  <∆∆G>  (80) 
-14.955969

>  <runtime>  (80) 
45.175167

>  <generation_date>  (80) 
nan

$$$$
mArh-x0950_0_A-mArh-5cms_L_11_L
     RDKit          3D

 40 43  0  0  0  0  0  0  0  0999 V2000
    1.4250   13.6650   -3.9580 C   0  0  0  0  0  0  0  0  0  0  0  0
    1.5650   12.2000   -4.0110 C   0  0  2  0  0  0  0  0  0  0  0  0
    0.8940   11.7120   -5.1680 O   0  0  0  0  0  0  0  0  0  0  0  0
   -0.0160   14.0100   -4.2340 C   0  0  2  0  0  0  0  0  0  0  0  0
    0.9600   11.6270   -2.7300 C   0  0  0  0  0  0  0  0  0  0  0  0
    0.1350   14.9400   -5.3870 C   0  0  0  0  0  0  0  0  0  0  0  0
   -0.6370   15.0870   -3.4100 C   0  0  2  0  0  0  0  0  0  0  0  0
    0.3050   10.5990   -2.5570 O   0  0  0  0  0  0  0  0  0  0  0  0
    1.2380   12.4530   -1.7090 O   0  0  0  0  0  0  0  0  0  0  0  0
    0.4520   16.0170   -3.3100 O   0  0  0  0  0  0  0  0  0  0  0  0
    0.8980   16.0750   -4.6940 C   0  0  2  0  0  0  0  0  0  0  0  0
   -1.5110   14.9710   -2.2800 N   0  0  0  0  0  0  0  0  0  0  0  0
    0.5880   17.4380   -5.2750 C   0  0  0  0  0  0  0  0  0  0  0  0
   -1.2230   14.8650   -0.9310 C   0  0  0  0  0  0  0  0  0  0  0  0
   -2.8680   14.9870   -2.4130 C   0  0  0  0  0  0  0  0  0  0  0  0
   -0.4810   17.2360   -6.1670 O   0  0  0  0  0  0  0  0  0  0  0  0
   -2.4840   14.8590   -0.3370 C   0  0  0  0  0  0  0  0  0  0  0  0
   -0.0430   14.8050   -0.2880 N   0  0  0  0  0  0  0  0  0  0  0  0
   -3.4870   14.9200   -1.2680 N   0  0  0  0  0  0  0  0  0  0  0  0
   -1.7860   18.1240   -6.0850 P   0  0  1  0  0  0  0  0  0  0  0  0
   -2.5490   14.8080    1.0540 C   0  0  0  0  0  0  0  0  0  0  0  0
   -0.2520   14.7480    1.0540 C   0  0  0  0  0  0  0  0  0  0  0  0
   -2.9600   17.4790   -6.6810 O   0  0  0  0  0  0  0  0  0  0  0  0
   -1.9160   18.4760   -4.5370 O   0  0  0  0  0  0  0  0  0  0  0  0
   -1.3690   19.5060   -6.6830 O   0  0  0  0  0  0  0  0  0  0  0  0
   -3.7650   14.8400    1.7110 N   0  0  0  0  0  0  0  0  0  0  0  0
   -1.4070   14.7450    1.7510 N   0  0  0  0  0  0  0  0  0  0  0  0
   -0.2340   19.6260   -7.7670 P   0  0  1  0  0  0  0  0  0  0  0  0
    1.0610   20.2320   -7.3910 O   0  0  0  0  0  0  0  0  0  0  0  0
   -0.1540   18.2290   -8.5120 O   0  0  0  0  0  0  0  0  0  0  0  0
   -0.9610   20.2780   -9.0020 O   0  0  0  0  0  0  0  0  0  0  0  0
   -1.0830   21.6800   -9.0100 C   0  0  0  0  0  0  0  0  0  0  0  0
   -1.9830   22.0570  -10.1770 C   0  0  2  0  0  0  0  0  0  0  0  0
   -1.9070   23.5460  -10.4810 C   0  0  1  0  0  0  0  0  0  0  0  0
   -3.3540   21.7750   -9.7990 O   0  0  0  0  0  0  0  0  0  0  0  0
   -0.9760   23.7720  -11.5460 O   0  0  0  0  0  0  0  0  0  0  0  0
   -4.1470   22.9180  -10.0930 C   0  0  2  0  0  0  0  0  0  0  0  0
   -3.3080   23.8230  -10.9930 C   0  0  2  0  0  0  0  0  0  0  0  0
   -4.4830   23.5970   -8.8820 O   0  0  0  0  0  0  0  0  0  0  0  0
   -3.4210   23.5510  -12.3750 O   0  0  0  0  0  0  0  0  0  0  0  0
  1  2  1  0
  2  3  1  6
  4  1  1  1
  2  5  1  0
  4  6  1  0
  4  7  1  0
  5  8  2  0
  5  9  1  0
  7 10  1  0
  6 11  1  0
 10 11  1  0
  7 12  1  1
 11 13  1  6
 12 14  1  0
 12 15  1  0
 13 16  1  0
 14 17  2  0
 14 18  1  0
 15 19  2  0
 17 19  1  0
 16 20  1  0
 17 21  1  0
 18 22  2  0
 20 23  2  0
 20 24  1  1
 20 25  1  0
 21 26  1  0
 21 27  2  0
 22 27  1  0
 25 28  1  0
 28 29  2  0
 28 30  1  6
 28 31  1  0
 31 32  1  0
 33 32  1  1
 33 34  1  0
 33 35  1  0
 34 36  1  6
 35 37  1  0
 34 38  1  0
 37 38  1  0
 37 39  1  1
 38 40  1  6
M  END
>  <%Rank>  (81) 
31.746032

>  <N_hits>  (81) 
2

>  <submitter_name>  (81) 
nan

>  <original SMILES>  (81) 
nan

>  <∆G_unbound>  (81) 
3.417032

>  <∆G_bound>  (81) 
-10.382185

>  <regarded>  (81) 
mArh-x0950_0_A,mArh-5cms_L_11_L

>  <ref_pdb>  (81) 
nan

>  <smiles>  (81) 
Nc1ncnc2c1ncn2C1OC(CO[P@@](=O)(O)O[P@@](=O)(O)OCC2OC(O)C(O)C2O)CC1C[C@H](O)C(=O)O

>  <submitter_email>  (81) 
nan

>  <disregarded>  (81) 


>  <LE>  (81) 
-0.34498

>  <submitter_institution>  (81) 
nan

>  <ref_mols>  (81) 
mArh-x0950_0_A,mArh-5cms_L_11_L

>  <N_constrained_atoms>  (81) 
40.0

>  <ref_url>  (81) 
nan

>  <method>  (81) 
nan

>  <comRMSD>  (81) 
0.717876

>  <N_unconstrained_atoms>  (81) 
0.0

>  <∆∆G>  (81) 
-13.799217

>  <runtime>  (81) 
48.127935

>  <generation_date>  (81) 
nan

$$$$
mArh-5cb5_F_1_F-mArh-5cb5_L_0_L
     RDKit          3D

 39 42  0  0  0  0  0  0  0  0999 V2000
   -1.4580   18.4800   -5.8510 P   0  0  1  0  0  0  0  0  0  0  0  0
   -0.1900   18.0020   -4.9720 O   0  0  0  0  0  0  0  0  0  0  0  0
    0.6240   16.8830   -5.2970 C   0  0  0  0  0  0  0  0  0  0  0  0
   -2.2650   17.4980   -6.6490 O   0  0  0  0  0  0  0  0  0  0  0  0
   -2.3320   19.2510   -4.7720 O   0  0  0  0  0  0  0  0  0  0  0  0
   -0.9340   19.7560   -6.6000 O   0  0  0  0  0  0  0  0  0  0  0  0
   -0.3640   19.8390   -8.0570 P   0  0  2  0  0  0  0  0  0  0  0  0
   -1.4260   20.4720   -8.8770 O   0  0  0  0  0  0  0  0  0  0  0  0
    0.1390   18.5930   -8.6900 O   0  0  0  0  0  0  0  0  0  0  0  0
    0.7340   20.9900   -7.9190 O   0  0  0  0  0  0  0  0  0  0  0  0
   -0.1770   15.6730   -4.9110 C   0  0  2  0  0  0  0  0  0  0  0  0
   -2.1700   21.5320   -8.3140 C   0  0  0  0  0  0  0  0  0  0  0  0
   -0.2320   15.6060   -3.5210 O   0  0  0  0  0  0  0  0  0  0  0  0
    0.1300   14.2150   -5.2720 C   0  0  1  0  0  0  0  0  0  0  0  0
    1.4540   13.8240   -4.8930 O   0  0  0  0  0  0  0  0  0  0  0  0
   -0.9110   13.5210   -4.3500 C   0  0  2  0  0  0  0  0  0  0  0  0
   -1.3320   14.7280   -3.5090 C   0  0  1  0  0  0  0  0  0  0  0  0
   -3.5750   21.6820   -8.9440 C   0  0  1  0  0  0  0  0  0  0  0  0
   -0.2980   12.4560   -3.6500 O   0  0  0  0  0  0  0  0  0  0  0  0
   -4.4640   20.7110   -8.3480 O   0  0  0  0  0  0  0  0  0  0  0  0
   -4.3800   22.9240   -8.6620 C   0  0  2  0  0  0  0  0  0  0  0  0
   -1.9200   14.7020   -2.2020 N   0  0  0  0  0  0  0  0  0  0  0  0
   -3.9650   24.1310   -9.2370 O   0  0  0  0  0  0  0  0  0  0  0  0
   -1.3570   14.7890   -0.9510 C   0  0  0  0  0  0  0  0  0  0  0  0
   -4.3380   22.6560   -7.1650 C   0  0  2  0  0  0  0  0  0  0  0  0
   -5.1360   21.3990   -7.3120 C   0  0  2  0  0  0  0  0  0  0  0  0
   -3.2890   14.6070   -2.0660 C   0  0  0  0  0  0  0  0  0  0  0  0
   -5.0470   23.4310   -6.2350 O   0  0  0  0  0  0  0  0  0  0  0  0
   -5.1660   20.6900   -6.1180 O   0  0  0  0  0  0  0  0  0  0  0  0
   -2.5910   14.7520   -0.0970 C   0  0  0  0  0  0  0  0  0  0  0  0
   -0.0820   14.9000   -0.5510 N   0  0  0  0  0  0  0  0  0  0  0  0
   -3.7240   14.6320   -0.8300 N   0  0  0  0  0  0  0  0  0  0  0  0
   -5.4000   24.5350   -6.7330 C   0  0  0  0  0  0  0  0  0  0  0  0
   -2.2950   14.8600    1.2410 C   0  0  0  0  0  0  0  0  0  0  0  0
   -0.0490   14.9880    0.7930 C   0  0  0  0  0  0  0  0  0  0  0  0
   -4.5700   25.5740   -6.0470 C   0  0  0  0  0  0  0  0  0  0  0  0
   -6.2530   24.5910   -7.5910 O   0  0  0  0  0  0  0  0  0  0  0  0
   -3.2710   14.8840    2.1700 N   0  0  0  0  0  0  0  0  0  0  0  0
   -1.0490   14.9620    1.6750 N   0  0  0  0  0  0  0  0  0  0  0  0
  1  2  1  0
  2  3  1  0
  1  4  2  0
  1  5  1  1
  1  6  1  0
  6  7  1  0
  7  8  1  0
  7  9  2  0
  7 10  1  1
 11  3  1  1
  8 12  1  0
 11 13  1  0
 11 14  1  0
 14 15  1  1
 14 16  1  0
 13 17  1  0
 16 17  1  0
 18 12  1  1
 16 19  1  1
 18 20  1  0
 18 21  1  0
 17 22  1  1
 21 23  1  1
 22 24  1  0
 21 25  1  0
 20 26  1  0
 25 26  1  0
 22 27  1  0
 25 28  1  1
 26 29  1  1
 24 30  2  0
 24 31  1  0
 27 32  2  0
 30 32  1  0
 28 33  1  0
 30 34  1  0
 31 35  2  0
 33 36  1  0
 33 37  2  0
 34 38  1  0
 34 39  2  0
 35 39  1  0
M  END
>  <%Rank>  (82) 
32.142857

>  <N_hits>  (82) 
2

>  <submitter_name>  (82) 
nan

>  <original SMILES>  (82) 
nan

>  <∆G_unbound>  (82) 
8.670374

>  <∆G_bound>  (82) 
-10.996914

>  <regarded>  (82) 
mArh-5cb5_F_1_F,mArh-5cb5_L_0_L

>  <ref_pdb>  (82) 
nan

>  <smiles>  (82) 
CC(=O)OC1C(O)OC(CO[P@@](=O)(O)O[P@](=O)(O)OCC2OC(n3cnc4c(N)ncnc43)C(O)C2O)C1O

>  <submitter_email>  (82) 
nan

>  <disregarded>  (82) 


>  <LE>  (82) 
-0.504289

>  <submitter_institution>  (82) 
nan

>  <ref_mols>  (82) 
mArh-5cb5_F_1_F,mArh-5cb5_L_0_L

>  <N_constrained_atoms>  (82) 
39.0

>  <ref_url>  (82) 
nan

>  <method>  (82) 
nan

>  <comRMSD>  (82) 
0.791343

>  <N_unconstrained_atoms>  (82) 
0.0

>  <∆∆G>  (82) 
-19.667289

>  <runtime>  (82) 
42.517384

>  <generation_date>  (82) 
nan

$$$$
mArh-5cms_H_7_H-mArh-5cms_D_3_D
     RDKit          3D

 36 39  0  0  0  0  0  0  0  0999 V2000
   -1.8440   17.8330   -6.0860 P   0  0  1  0  0  0  0  0  0  0  0  0
   -0.3160   17.3290   -6.2840 O   0  0  0  0  0  0  0  0  0  0  0  0
    0.5300   16.7760   -5.2780 C   0  0  0  0  0  0  0  0  0  0  0  0
   -2.9200   16.7910   -6.1930 O   0  0  0  0  0  0  0  0  0  0  0  0
   -1.8600   18.7990   -4.8240 O   0  0  0  0  0  0  0  0  0  0  0  0
   -1.8370   18.7810   -7.3160 O   0  0  0  0  0  0  0  0  0  0  0  0
   -0.4000   19.3760   -7.6610 P   0  0  1  0  0  0  0  0  0  0  0  0
    0.6320   19.2230   -6.6030 O   0  0  0  0  0  0  0  0  0  0  0  0
    0.0340   18.5500   -8.9400 O   0  0  0  0  0  0  0  0  0  0  0  0
   -0.5320   20.8650   -8.1870 O   0  0  0  0  0  0  0  0  0  0  0  0
   -0.2430   15.6250   -4.6790 C   0  0  2  0  0  0  0  0  0  0  0  0
   -1.7730   21.4480   -8.5260 C   0  0  0  0  0  0  0  0  0  0  0  0
   -0.1350   15.5220   -3.2920 O   0  0  0  0  0  0  0  0  0  0  0  0
   -0.0190   14.1600   -5.0900 C   0  0  1  0  0  0  0  0  0  0  0  0
    1.2830   13.6330   -4.8660 O   0  0  0  0  0  0  0  0  0  0  0  0
   -1.0330   13.5300   -4.1030 C   0  0  2  0  0  0  0  0  0  0  0  0
   -1.3310   14.7810   -3.2620 C   0  0  1  0  0  0  0  0  0  0  0  0
   -1.6540   22.0120   -9.9270 C   0  0  2  0  0  0  0  0  0  0  0  0
   -0.5560   12.3730   -3.4550 O   0  0  0  0  0  0  0  0  0  0  0  0
   -0.6610   23.1780   -9.9490 C   0  0  1  0  0  0  0  0  0  0  0  0
   -2.9410   22.4520  -10.3960 O   0  0  0  0  0  0  0  0  0  0  0  0
   -2.0160   14.8710   -2.0020 N   0  0  0  0  0  0  0  0  0  0  0  0
    0.6100   22.9620  -10.5540 O   0  0  0  0  0  0  0  0  0  0  0  0
   -2.7340   23.6520  -11.1100 C   0  0  2  0  0  0  0  0  0  0  0  0
   -1.3960   24.2890  -10.6410 C   0  0  2  0  0  0  0  0  0  0  0  0
   -1.6030   14.7950   -0.6950 C   0  0  0  0  0  0  0  0  0  0  0  0
   -3.3580   15.1190   -2.0040 C   0  0  0  0  0  0  0  0  0  0  0  0
   -3.8720   24.4660  -10.8720 O   0  0  0  0  0  0  0  0  0  0  0  0
   -0.6580   24.8400  -11.7120 O   0  0  0  0  0  0  0  0  0  0  0  0
   -2.7710   15.0430    0.0100 C   0  0  0  0  0  0  0  0  0  0  0  0
   -0.3880   14.5690   -0.1650 N   0  0  0  0  0  0  0  0  0  0  0  0
   -3.8490   15.2270   -0.8130 N   0  0  0  0  0  0  0  0  0  0  0  0
   -2.6930   15.0830    1.3770 C   0  0  0  0  0  0  0  0  0  0  0  0
   -0.4460   14.6090    1.1780 C   0  0  0  0  0  0  0  0  0  0  0  0
   -3.8040   15.3790    2.1260 N   0  0  0  0  0  0  0  0  0  0  0  0
   -1.5110   14.8460    1.9670 N   0  0  0  0  0  0  0  0  0  0  0  0
  1  2  1  0
  2  3  1  0
  1  4  2  0
  1  5  1  1
  1  6  1  0
  6  7  1  0
  7  8  2  0
  7  9  1  6
  7 10  1  0
 11  3  1  6
 10 12  1  0
 11 13  1  0
 11 14  1  0
 14 15  1  1
 14 16  1  0
 13 17  1  0
 16 17  1  0
 18 12  1  1
 16 19  1  1
 18 20  1  0
 18 21  1  0
 17 22  1  1
 20 23  1  6
 21 24  1  0
 20 25  1  0
 24 25  1  0
 22 26  1  0
 22 27  1  0
 24 28  1  1
 25 29  1  6
 26 30  2  0
 26 31  1  0
 27 32  2  0
 30 32  1  0
 30 33  1  0
 31 34  2  0
 33 35  1  0
 33 36  2  0
 34 36  1  0
M  END
>  <%Rank>  (83) 
32.539683

>  <N_hits>  (83) 
2

>  <submitter_name>  (83) 
nan

>  <original SMILES>  (83) 
nan

>  <∆G_unbound>  (83) 
2.592717

>  <∆G_bound>  (83) 
-10.838357

>  <regarded>  (83) 
mArh-5cms_H_7_H,mArh-5cms_D_3_D

>  <ref_pdb>  (83) 
nan

>  <smiles>  (83) 
Nc1ncnc2c1ncn2C1OC(CO[P@@](=O)(O)O[P@@](=O)(O)OCC2OC(O)C(O)C2O)C(O)C1O

>  <submitter_email>  (83) 
nan

>  <disregarded>  (83) 


>  <LE>  (83) 
-0.373085

>  <submitter_institution>  (83) 
nan

>  <ref_mols>  (83) 
mArh-5cms_H_7_H,mArh-5cms_D_3_D

>  <N_constrained_atoms>  (83) 
36.0

>  <ref_url>  (83) 
nan

>  <method>  (83) 
nan

>  <comRMSD>  (83) 
0.699152

>  <N_unconstrained_atoms>  (83) 
0.0

>  <∆∆G>  (83) 
-13.431074

>  <runtime>  (83) 
49.490874

>  <generation_date>  (83) 
nan

$$$$
mArh-x0844_0_A-mArh-6woj_B_0_B
     RDKit          3D

 43 47  0  0  0  0  0  0  0  0999 V2000
   -7.6820   15.5460   -0.4740 O   0  0  0  0  0  0  0  0  0  0  0  0
   -6.4980   15.2250   -0.5730 C   0  0  0  0  0  0  0  0  0  0  0  0
   -5.8650   14.5950    0.4440 N   0  0  0  0  0  0  0  0  0  0  0  0
   -5.6450   15.4380   -1.8100 C   0  0  0  0  0  0  0  0  0  0  0  0
   -5.4510   13.3570    0.1460 C   0  0  0  0  0  0  0  0  0  0  0  0
   -4.7130   14.2420   -2.1300 C   0  0  2  0  0  0  0  0  0  0  0  0
   -4.9230   13.1410   -1.0840 C   0  0  0  0  0  0  0  0  0  0  0  0
   -3.3560   14.4440   -1.6540 C   0  0  0  0  0  0  0  0  0  0  0  0
   -3.5310   14.4550   -0.4230 N   0  0  0  0  0  0  0  0  0  0  0  0
   -2.0090   14.6090   -2.0260 N   0  0  0  0  0  0  0  0  0  0  0  0
   -1.2600   14.7020   -3.2850 C   0  0  1  0  0  0  0  0  0  0  0  0
   -2.4070   14.5990    0.1280 C   0  0  0  0  0  0  0  0  0  0  0  0
   -1.3870   14.6980   -0.7700 C   0  0  0  0  0  0  0  0  0  0  0  0
   -0.0620   15.4850   -3.2360 O   0  0  0  0  0  0  0  0  0  0  0  0
   -0.9420   13.5280   -4.2630 C   0  0  2  0  0  0  0  0  0  0  0  0
   -2.2300   14.6490    1.4410 C   0  0  0  0  0  0  0  0  0  0  0  0
   -0.1160   14.8530   -0.4180 N   0  0  0  0  0  0  0  0  0  0  0  0
   -0.5080   12.3050   -3.6700 O   0  0  0  0  0  0  0  0  0  0  0  0
   -3.2890   14.5660    2.2940 N   0  0  0  0  0  0  0  0  0  0  0  0
    0.0260   15.5940   -4.6550 C   0  0  2  0  0  0  0  0  0  0  0  0
    0.2280   14.1380   -5.0670 C   0  0  1  0  0  0  0  0  0  0  0  0
   -1.0170   14.7900    1.8720 N   0  0  0  0  0  0  0  0  0  0  0  0
   -0.0610   14.8960    0.9420 C   0  0  0  0  0  0  0  0  0  0  0  0
    0.8980   16.7040   -5.1820 C   0  0  0  0  0  0  0  0  0  0  0  0
    1.4800   13.5400   -4.7460 O   0  0  0  0  0  0  0  0  0  0  0  0
    0.1220   17.3310   -6.1960 O   0  0  0  0  0  0  0  0  0  0  0  0
   -1.1370   18.2530   -5.8420 P   0  0  2  0  0  0  0  0  0  0  0  0
   -1.5920   18.2550   -4.4440 O   0  0  0  0  0  0  0  0  0  0  0  0
   -2.3360   17.6930   -6.7580 O   0  0  0  0  0  0  0  0  0  0  0  0
   -0.8480   19.6600   -6.4290 O   0  0  0  0  0  0  0  0  0  0  0  0
   -0.0630   20.0190   -7.7460 P   0  0  1  0  0  0  0  0  0  0  0  0
    1.2010   20.7980   -7.5180 O   0  0  0  0  0  0  0  0  0  0  0  0
    0.0980   18.6460   -8.5790 O   0  0  0  0  0  0  0  0  0  0  0  0
   -1.1840   20.8100   -8.5180 O   0  0  0  0  0  0  0  0  0  0  0  0
   -1.7010   21.9630   -7.8810 C   0  0  0  0  0  0  0  0  0  0  0  0
   -3.1590   22.2090   -8.2450 C   0  0  2  0  0  0  0  0  0  0  0  0
   -3.6480   23.6170   -7.8890 C   0  0  1  0  0  0  0  0  0  0  0  0
   -3.9950   21.3030   -7.4990 O   0  0  0  0  0  0  0  0  0  0  0  0
   -4.5490   24.0790   -8.9070 O   0  0  0  0  0  0  0  0  0  0  0  0
   -5.0050   22.0370   -6.8330 C   0  0  2  0  0  0  0  0  0  0  0  0
   -4.4020   23.4050   -6.5800 C   0  0  2  0  0  0  0  0  0  0  0  0
   -5.3250   21.3960   -5.6040 O   0  0  0  0  0  0  0  0  0  0  0  0
   -5.4230   24.3720   -6.3450 O   0  0  0  0  0  0  0  0  0  0  0  0
  1  2  2  0
  2  3  1  0
  2  4  1  0
  3  5  1  0
  4  6  1  0
  5  7  2  0
  6  7  1  0
  6  8  1  1
  8  9  2  0
  8 10  1  0
 11 10  1  1
  9 12  1  0
 10 13  1  0
 12 13  2  0
 11 14  1  0
 11 15  1  0
 12 16  1  0
 13 17  1  0
 15 18  1  1
 16 19  1  0
 14 20  1  0
 15 21  1  0
 20 21  1  0
 16 22  2  0
 17 23  2  0
 22 23  1  0
 20 24  1  1
 21 25  1  1
 24 26  1  0
 26 27  1  0
 27 28  2  0
 27 29  1  6
 27 30  1  0
 30 31  1  0
 31 32  2  0
 31 33  1  6
 31 34  1  0
 34 35  1  0
 36 35  1  1
 36 37  1  0
 36 38  1  0
 37 39  1  6
 38 40  1  0
 37 41  1  0
 40 41  1  0
 40 42  1  1
 41 43  1  6
M  END
>  <%Rank>  (84) 
32.936508

>  <N_hits>  (84) 
2

>  <submitter_name>  (84) 
nan

>  <original SMILES>  (84) 
nan

>  <∆G_unbound>  (84) 
5.917239

>  <∆G_bound>  (84) 
-16.583487

>  <regarded>  (84) 
mArh-x0844_0_A,mArh-6woj_B_0_B

>  <ref_pdb>  (84) 
nan

>  <smiles>  (84) 
Nc1ncnc2c1nc(C1C=CNC(=O)C1)n2C1OC(CO[P@](=O)(O)O[P@@](=O)(O)OCC2OC(O)C(O)C2O)C(O)C1O

>  <submitter_email>  (84) 
nan

>  <disregarded>  (84) 


>  <LE>  (84) 
-0.523273

>  <submitter_institution>  (84) 
nan

>  <ref_mols>  (84) 
mArh-x0844_0_A,mArh-6woj_B_0_B

>  <N_constrained_atoms>  (84) 
43.0

>  <ref_url>  (84) 
nan

>  <method>  (84) 
nan

>  <comRMSD>  (84) 
0.837189

>  <N_unconstrained_atoms>  (84) 
0.0

>  <∆∆G>  (84) 
-22.500725

>  <runtime>  (84) 
40.812931

>  <generation_date>  (84) 
nan

$$$$
mArh-x0727_0_A-mArh-5cms_N_13_N
     RDKit          3D

 46 50  0  0  0  0  0  0  0  0999 V2000
   -0.2980   11.8970   -5.7690 N   0  0  0  0  0  0  0  0  0  0  0  0
   -0.1580   12.4580   -4.3890 C   0  0  1  0  0  0  0  0  0  0  0  0
    0.5730   11.5600   -3.3980 C   0  0  0  0  0  0  0  0  0  0  0  0
    0.6910   11.3770   -6.5960 C   0  0  0  0  0  0  0  0  0  0  0  0
    1.7980   11.8990   -6.6500 O   0  0  0  0  0  0  0  0  0  0  0  0
    0.2590   10.1360   -7.4110 C   0  0  0  0  0  0  0  0  0  0  0  0
    0.3200   13.9090   -4.2430 C   0  0  1  0  0  0  0  0  0  0  0  0
    0.2500   10.4210   -3.1240 O   0  0  0  0  0  0  0  0  0  0  0  0
    1.6270   12.1770   -2.8110 O   0  0  0  0  0  0  0  0  0  0  0  0
   -0.9380   10.3970   -8.3260 C   0  0  0  0  0  0  0  0  0  0  0  0
   -0.1490    8.9020   -6.5680 C   0  0  0  0  0  0  0  0  0  0  0  0
    0.7070   14.6950   -5.3100 C   0  0  0  0  0  0  0  0  0  0  0  0
   -0.6340   14.9520   -3.7280 C   0  0  2  0  0  0  0  0  0  0  0  0
   -2.1240    9.6940   -7.6460 C   0  0  0  0  0  0  0  0  0  0  0  0
   -1.5180    8.4280   -7.0600 C   0  0  0  0  0  0  0  0  0  0  0  0
    0.2490   16.0530   -3.5870 O   0  0  0  0  0  0  0  0  0  0  0  0
    1.0190   15.9910   -4.7920 C   0  0  2  0  0  0  0  0  0  0  0  0
   -1.4730   14.8560   -2.5510 N   0  0  0  0  0  0  0  0  0  0  0  0
    0.7550   17.2980   -5.6090 C   0  0  0  0  0  0  0  0  0  0  0  0
   -1.1740   14.8350   -1.1880 C   0  0  0  0  0  0  0  0  0  0  0  0
   -2.8310   14.8010   -2.6740 C   0  0  0  0  0  0  0  0  0  0  0  0
   -0.3930   17.2680   -6.4400 O   0  0  0  0  0  0  0  0  0  0  0  0
   -2.4270   14.7880   -0.5860 C   0  0  0  0  0  0  0  0  0  0  0  0
    0.0040   14.8700   -0.5470 N   0  0  0  0  0  0  0  0  0  0  0  0
   -3.4380   14.7580   -1.5190 N   0  0  0  0  0  0  0  0  0  0  0  0
   -1.7020   18.1680   -6.1650 P   0  0  1  0  0  0  0  0  0  0  0  0
   -2.4830   14.7870    0.8140 C   0  0  0  0  0  0  0  0  0  0  0  0
   -0.1870   14.8620    0.8090 C   0  0  0  0  0  0  0  0  0  0  0  0
   -2.9020   17.5790   -6.8030 O   0  0  0  0  0  0  0  0  0  0  0  0
   -1.7410   18.3290   -4.5970 O   0  0  0  0  0  0  0  0  0  0  0  0
   -1.3690   19.6190   -6.6920 O   0  0  0  0  0  0  0  0  0  0  0  0
   -3.7020   14.7740    1.4650 N   0  0  0  0  0  0  0  0  0  0  0  0
   -1.3380   14.8160    1.5230 N   0  0  0  0  0  0  0  0  0  0  0  0
   -0.4280   19.9020   -7.9290 P   0  0  1  0  0  0  0  0  0  0  0  0
    0.8810   20.5140   -7.5940 O   0  0  0  0  0  0  0  0  0  0  0  0
   -0.3110   18.4910   -8.6710 O   0  0  0  0  0  0  0  0  0  0  0  0
   -1.2960   20.7260   -8.9990 O   0  0  0  0  0  0  0  0  0  0  0  0
   -2.0240   21.9050   -8.6500 C   0  0  0  0  0  0  0  0  0  0  0  0
   -3.2960   21.9580   -9.5290 C   0  0  2  0  0  0  0  0  0  0  0  0
   -3.6430   23.1190  -10.4680 C   0  0  1  0  0  0  0  0  0  0  0  0
   -4.4550   21.7860   -8.7050 O   0  0  0  0  0  0  0  0  0  0  0  0
   -3.7230   22.5450  -11.7920 O   0  0  0  0  0  0  0  0  0  0  0  0
   -5.3480   22.8780   -8.9750 C   0  0  2  0  0  0  0  0  0  0  0  0
   -5.0380   23.5140  -10.3110 C   0  0  2  0  0  0  0  0  0  0  0  0
   -5.1630   23.8950   -8.0200 O   0  0  0  0  0  0  0  0  0  0  0  0
   -5.7400   23.0120  -11.4520 O   0  0  0  0  0  0  0  0  0  0  0  0
  2  1  1  6
  2  3  1  0
  1  4  1  0
  4  5  2  0
  4  6  1  0
  2  7  1  0
  3  8  2  0
  3  9  1  0
  6 10  1  0
  6 11  1  0
  7 12  1  6
  7 13  1  0
 10 14  1  0
 11 15  1  0
 14 15  1  0
 13 16  1  0
 12 17  1  0
 16 17  1  0
 13 18  1  1
 17 19  1  6
 18 20  1  0
 18 21  1  0
 19 22  1  0
 20 23  2  0
 20 24  1  0
 21 25  2  0
 23 25  1  0
 22 26  1  0
 23 27  1  0
 24 28  2  0
 26 29  2  0
 26 30  1  1
 26 31  1  0
 27 32  1  0
 27 33  2  0
 28 33  1  0
 31 34  1  0
 34 35  2  0
 34 36  1  6
 34 37  1  0
 37 38  1  0
 39 38  1  1
 39 40  1  0
 39 41  1  0
 40 42  1  6
 41 43  1  0
 40 44  1  0
 43 44  1  0
 43 45  1  1
 44 46  1  6
M  END
>  <%Rank>  (85) 
33.333333

>  <N_hits>  (85) 
2

>  <submitter_name>  (85) 
nan

>  <original SMILES>  (85) 
nan

>  <∆G_unbound>  (85) 
10.703714

>  <∆G_bound>  (85) 
-11.79126

>  <regarded>  (85) 
mArh-x0727_0_A,mArh-5cms_N_13_N

>  <ref_pdb>  (85) 
nan

>  <smiles>  (85) 
Nc1ncnc2c1ncn2C1OC(CO[P@@](=O)(O)O[P@@](=O)(O)OCC2OC(O)C(O)C2O)CC1[C@@H](NC(=O)C1CCCC1)C(=O)O

>  <submitter_email>  (85) 
nan

>  <disregarded>  (85) 


>  <LE>  (85) 
-0.489021

>  <submitter_institution>  (85) 
nan

>  <ref_mols>  (85) 
mArh-x0727_0_A,mArh-5cms_N_13_N

>  <N_constrained_atoms>  (85) 
46.0

>  <ref_url>  (85) 
nan

>  <method>  (85) 
nan

>  <comRMSD>  (85) 
0.846835

>  <N_unconstrained_atoms>  (85) 
0.0

>  <∆∆G>  (85) 
-22.494974

>  <runtime>  (85) 
49.516838

>  <generation_date>  (85) 
nan

$$$$
mArh-x0592_0_A-mArh-x0852_0_B
     RDKit          3D

 21 22  0  0  0  0  0  0  0  0999 V2000
   -2.6260   14.9980    1.0460 N   0  0  0  0  0  0  0  0  0  0  0  0
   -3.1750   14.9460   -0.2020 C   0  0  0  0  0  0  0  0  0  0  0  0
   -2.4660   14.9340   -1.1990 O   0  0  0  0  0  0  0  0  0  0  0  0
   -4.6130   14.8870   -0.2530 C   0  0  0  0  0  0  0  0  0  0  0  0
   -5.4530   15.2110   -1.3460 C   0  0  0  0  0  0  0  0  0  0  0  0
   -5.4880   14.5040    0.7340 C   0  0  0  0  0  0  0  0  0  0  0  0
   -6.7500   15.0400   -1.0660 N   0  0  0  0  0  0  0  0  0  0  0  0
   -6.7320   14.6090    0.2080 N   0  0  0  0  0  0  0  0  0  0  0  0
   -7.9620   14.3020    0.8980 C   0  0  0  0  0  0  0  0  0  0  0  0
   -7.6930   13.3650    2.0830 C   0  0  0  0  0  0  0  0  0  0  0  0
   -7.4890   14.1090    3.2940 O   0  0  0  0  0  0  0  0  0  0  0  0
   -8.3550   15.1060    3.5140 C   0  0  0  0  0  0  0  0  0  0  0  0
   -8.4120   15.6380    4.8160 C   0  0  0  0  0  0  0  0  0  0  0  0
   -9.1690   15.6050    2.5210 C   0  0  0  0  0  0  0  0  0  0  0  0
   -7.6090   15.1380    5.8310 O   0  0  0  0  0  0  0  0  0  0  0  0
  -10.0420   16.6310    2.7850 C   0  0  0  0  0  0  0  0  0  0  0  0
   -9.3050   16.6850    5.0850 C   0  0  0  0  0  0  0  0  0  0  0  0
   -9.4340   17.2750    6.3770 C   0  0  0  0  0  0  0  0  0  0  0  0
  -11.1260   17.2650    1.3710 Br  0  0  0  0  0  0  0  0  0  0  0  0
  -10.1170   17.1790    4.0590 C   0  0  0  0  0  0  0  0  0  0  0  0
   -9.6140   17.7510    7.4230 N   0  0  0  0  0  0  0  0  0  0  0  0
  1  2  1  0
  2  3  2  0
  2  4  1  0
  4  5  1  0
  4  6  2  0
  5  7  2  0
  6  8  1  0
  7  8  1  0
  8  9  1  0
  9 10  1  0
 10 11  1  0
 11 12  1  0
 12 13  2  0
 12 14  1  0
 13 15  1  0
 14 16  2  0
 13 17  1  0
 17 18  1  0
 16 19  1  0
 16 20  1  0
 17 20  2  0
 18 21  3  0
M  END
>  <%Rank>  (86) 
33.730159

>  <N_hits>  (86) 
2

>  <submitter_name>  (86) 
nan

>  <original SMILES>  (86) 
nan

>  <∆G_unbound>  (86) 
0.43425

>  <∆G_bound>  (86) 
-4.321271

>  <regarded>  (86) 
mArh-x0592_0_A,mArh-x0852_0_B

>  <ref_pdb>  (86) 
nan

>  <smiles>  (86) 
N#Cc1cc(Br)cc(OCCn2cc(C(N)=O)cn2)c1O

>  <submitter_email>  (86) 
nan

>  <disregarded>  (86) 


>  <LE>  (86) 
-0.226453

>  <submitter_institution>  (86) 
nan

>  <ref_mols>  (86) 
mArh-x0592_0_A,mArh-x0852_0_B

>  <N_constrained_atoms>  (86) 
21.0

>  <ref_url>  (86) 
nan

>  <method>  (86) 
nan

>  <comRMSD>  (86) 
0.44357

>  <N_unconstrained_atoms>  (86) 
0.0

>  <∆∆G>  (86) 
-4.755521

>  <runtime>  (86) 
25.379696

>  <generation_date>  (86) 
nan

$$$$
mArh-x0662_0_A-mArh-5lw0_A_0_A
     RDKit          3D

 52 58  0  0  0  0  0  0  0  0999 V2000
    5.2400    9.4880  -14.8580 C   0  0  0  0  0  0  0  0  0  0  0  0
    4.1910    9.9800  -13.9930 N   0  0  0  0  0  0  0  0  0  0  0  0
    3.5270   11.1660  -14.1000 C   0  0  0  0  0  0  0  0  0  0  0  0
    3.7880    9.2350  -12.9520 N   0  0  0  0  0  0  0  0  0  0  0  0
    2.6320   11.1900  -13.0530 C   0  0  0  0  0  0  0  0  0  0  0  0
    2.8210    9.9570  -12.3420 C   0  0  0  0  0  0  0  0  0  0  0  0
    2.1350    9.4430  -11.1050 C   0  0  0  0  0  0  0  0  0  0  0  0
    2.1480    8.2460  -10.8420 O   0  0  0  0  0  0  0  0  0  0  0  0
    1.5240   10.4200  -10.2940 N   0  0  0  0  0  0  0  0  0  0  0  0
    0.6330   10.2340   -9.1770 C   0  0  0  0  0  0  0  0  0  0  0  0
   -0.3910    9.2980   -9.1730 C   0  0  0  0  0  0  0  0  0  0  0  0
    0.7880   11.0410   -8.0100 C   0  0  0  0  0  0  0  0  0  0  0  0
   -1.2340    9.1710   -8.0550 C   0  0  0  0  0  0  0  0  0  0  0  0
   -0.0550   10.9360   -6.8720 C   0  0  0  0  0  0  0  0  0  0  0  0
    0.1340   11.8130   -5.6400 C   0  0  0  0  0  0  0  0  0  0  0  0
   -1.0700    9.9810   -6.9170 C   0  0  0  0  0  0  0  0  0  0  0  0
   -0.5210   11.7820   -4.4770 N   0  0  0  0  0  0  0  0  0  0  0  0
    1.1230   12.7510   -5.7640 O   0  0  0  0  0  0  0  0  0  0  0  0
    1.0300   13.5940   -4.6010 C   0  0  2  0  0  0  0  0  0  0  0  0
    0.2360   12.7710   -3.6090 C   0  0  1  0  0  0  0  0  0  0  0  0
    0.0800   14.7890   -4.5900 C   0  0  2  0  0  0  0  0  0  0  0  0
   -0.2480   13.9070   -2.6160 C   0  0  1  0  0  0  0  0  0  0  0  0
    0.2810   16.1050   -5.2630 C   0  0  0  0  0  0  0  0  0  0  0  0
    0.0280   15.1400   -3.2330 O   0  0  0  0  0  0  0  0  0  0  0  0
   -1.4720   14.1700   -1.8550 N   0  0  0  0  0  0  0  0  0  0  0  0
   -1.0920   16.3880   -5.5000 O   0  0  0  0  0  0  0  0  0  0  0  0
   -1.4450   14.3310   -0.5120 C   0  0  0  0  0  0  0  0  0  0  0  0
   -2.7780   14.3370   -2.2630 C   0  0  0  0  0  0  0  0  0  0  0  0
   -1.6500   17.7790   -5.9990 P   0  0  1  0  0  0  0  0  0  0  0  0
   -2.7480   14.6060   -0.1270 C   0  0  0  0  0  0  0  0  0  0  0  0
   -0.3570   14.2410    0.2500 N   0  0  0  0  0  0  0  0  0  0  0  0
   -3.5820   14.6070   -1.2320 N   0  0  0  0  0  0  0  0  0  0  0  0
   -2.7980   17.6140   -6.9190 O   0  0  0  0  0  0  0  0  0  0  0  0
   -1.9660   18.5560   -4.6530 O   0  0  0  0  0  0  0  0  0  0  0  0
   -0.3780   18.5440   -6.4990 O   0  0  0  0  0  0  0  0  0  0  0  0
   -2.9380   14.8240    1.2530 C   0  0  0  0  0  0  0  0  0  0  0  0
   -0.6540   14.4440    1.5270 C   0  0  0  0  0  0  0  0  0  0  0  0
   -0.3790   19.2990   -7.8610 P   0  0  2  0  0  0  0  0  0  0  0  0
   -4.1560   15.1360    1.8510 N   0  0  0  0  0  0  0  0  0  0  0  0
   -1.8600   14.7220    2.0560 N   0  0  0  0  0  0  0  0  0  0  0  0
    0.0440   18.4480   -8.9800 O   0  0  0  0  0  0  0  0  0  0  0  0
    0.5620   20.5710   -7.7250 O   0  0  0  0  0  0  0  0  0  0  0  0
   -1.8370   19.9090   -7.9650 O   0  0  0  0  0  0  0  0  0  0  0  0
   -2.0840   21.1140   -8.6590 C   0  0  0  0  0  0  0  0  0  0  0  0
   -3.2320   21.8750   -8.0200 C   0  0  1  0  0  0  0  0  0  0  0  0
   -4.2130   22.7190   -8.8460 C   0  0  1  0  0  0  0  0  0  0  0  0
   -4.0720   20.9600   -7.3290 O   0  0  0  0  0  0  0  0  0  0  0  0
   -4.7050   22.2230  -10.0740 O   0  0  0  0  0  0  0  0  0  0  0  0
   -5.1290   21.7610   -6.8370 C   0  0  1  0  0  0  0  0  0  0  0  0
   -5.3660   22.8610   -7.8630 C   0  0  2  0  0  0  0  0  0  0  0  0
   -6.3170   21.0240   -6.6660 O   0  0  0  0  0  0  0  0  0  0  0  0
   -6.6110   22.7140   -8.5240 O   0  0  0  0  0  0  0  0  0  0  0  0
  1  2  1  0
  2  3  1  0
  2  4  1  0
  3  5  2  0
  4  6  2  0
  5  6  1  0
  6  7  1  0
  7  8  2  0
  7  9  1  0
  9 10  1  0
 10 11  2  0
 10 12  1  0
 11 13  1  0
 12 14  2  0
 14 15  1  0
 13 16  2  0
 14 16  1  0
 15 17  2  0
 15 18  1  0
 19 18  1  6
 20 17  1  6
 19 20  1  0
 19 21  1  0
 20 22  1  0
 21 23  1  6
 21 24  1  0
 22 24  1  0
 22 25  1  6
 23 26  1  0
 25 27  1  0
 25 28  1  0
 26 29  1  0
 27 30  2  0
 27 31  1  0
 28 32  2  0
 30 32  1  0
 29 33  2  0
 29 34  1  1
 29 35  1  0
 30 36  1  0
 31 37  2  0
 35 38  1  0
 36 39  1  0
 36 40  2  0
 37 40  1  0
 38 41  2  0
 38 42  1  1
 38 43  1  0
 43 44  1  0
 45 44  1  6
 45 46  1  0
 45 47  1  0
 46 48  1  6
 47 49  1  0
 46 50  1  0
 49 50  1  0
 49 51  1  6
 50 52  1  6
M  END
>  <%Rank>  (87) 
34.126984

>  <N_hits>  (87) 
2

>  <submitter_name>  (87) 
nan

>  <original SMILES>  (87) 
nan

>  <∆G_unbound>  (87) 
3.023599

>  <∆G_bound>  (87) 
-17.391264

>  <regarded>  (87) 
mArh-x0662_0_A,mArh-5lw0_A_0_A

>  <ref_pdb>  (87) 
nan

>  <smiles>  (87) 
Cn1ccc(C(=O)Nc2cccc(C3=NC4C(O3)C(CO[P@@](=O)(O)O[P@](=O)(O)OCC3OC(O)C(O)C3O)OC4n3cnc4c(N)ncnc43)c2)n1

>  <submitter_email>  (87) 
nan

>  <disregarded>  (87) 


>  <LE>  (87) 
-0.392594

>  <submitter_institution>  (87) 
nan

>  <ref_mols>  (87) 
mArh-x0662_0_A,mArh-5lw0_A_0_A

>  <N_constrained_atoms>  (87) 
52.0

>  <ref_url>  (87) 
nan

>  <method>  (87) 
nan

>  <comRMSD>  (87) 
0.850397

>  <N_unconstrained_atoms>  (87) 
0.0

>  <∆∆G>  (87) 
-20.414863

>  <runtime>  (87) 
67.559208

>  <generation_date>  (87) 
nan

$$$$
mArh-5cb5_C_0_C-mArh-x0837_0_A
     RDKit          3D

 43 47  0  0  0  0  0  0  0  0999 V2000
   -1.6510   18.3390   -6.0830 P   0  0  1  0  0  0  0  0  0  0  0  0
   -1.0870   16.9870   -5.4820 O   0  0  0  0  0  0  0  0  0  0  0  0
    0.3020   16.8960   -5.2390 C   0  0  0  0  0  0  0  0  0  0  0  0
   -2.7150   18.1740   -7.0880 O   0  0  0  0  0  0  0  0  0  0  0  0
   -2.1460   19.1660   -4.8010 O   0  0  0  0  0  0  0  0  0  0  0  0
   -0.3890   19.1860   -6.4590 O   0  0  0  0  0  0  0  0  0  0  0  0
   -0.2000   19.8810   -7.8500 P   0  0  1  0  0  0  0  0  0  0  0  0
    0.8930   20.8870   -7.8520 O   0  0  0  0  0  0  0  0  0  0  0  0
    0.1100   18.6350   -8.8160 O   0  0  0  0  0  0  0  0  0  0  0  0
   -1.5980   20.4350   -8.3880 O   0  0  0  0  0  0  0  0  0  0  0  0
    0.5560   15.7220   -4.3060 C   0  0  1  0  0  0  0  0  0  0  0  0
   -1.9850   21.7670   -8.0740 C   0  0  0  0  0  0  0  0  0  0  0  0
   -0.2980   15.8940   -3.1680 O   0  0  0  0  0  0  0  0  0  0  0  0
    0.2090   14.3490   -4.8820 C   0  0  1  0  0  0  0  0  0  0  0  0
    1.3520   13.5460   -5.1370 O   0  0  0  0  0  0  0  0  0  0  0  0
   -0.6540   13.7160   -3.7910 C   0  0  1  0  0  0  0  0  0  0  0  0
   -1.3890   14.9590   -3.2790 C   0  0  1  0  0  0  0  0  0  0  0  0
   -3.3180   22.1500   -8.7220 C   0  0  2  0  0  0  0  0  0  0  0  0
   -1.4000   12.6910   -4.4260 O   0  0  0  0  0  0  0  0  0  0  0  0
   -3.7890   23.5800   -8.4020 C   0  0  1  0  0  0  0  0  0  0  0  0
   -4.3650   21.2800   -8.2660 O   0  0  0  0  0  0  0  0  0  0  0  0
   -2.1510   14.9550   -1.9910 N   0  0  0  0  0  0  0  0  0  0  0  0
   -4.6890   24.0980   -9.4030 O   0  0  0  0  0  0  0  0  0  0  0  0
   -5.2690   22.0360   -7.4670 C   0  0  2  0  0  0  0  0  0  0  0  0
   -4.5230   23.3080   -7.0950 C   0  0  2  0  0  0  0  0  0  0  0  0
   -1.5100   14.9170   -0.7340 C   0  0  0  0  0  0  0  0  0  0  0  0
   -3.5190   15.0220   -1.5870 C   0  0  0  0  0  0  0  0  0  0  0  0
   -5.6040   21.3520   -6.2650 O   0  0  0  0  0  0  0  0  0  0  0  0
   -5.4660   24.3290   -6.7280 O   0  0  0  0  0  0  0  0  0  0  0  0
   -2.5310   14.9590    0.1850 C   0  0  0  0  0  0  0  0  0  0  0  0
   -0.2260   14.8670   -0.3930 N   0  0  0  0  0  0  0  0  0  0  0  0
   -3.6620   15.0130   -0.3520 N   0  0  0  0  0  0  0  0  0  0  0  0
   -4.9230   15.1260   -1.9680 C   0  0  2  0  0  0  0  0  0  0  0  0
   -2.3340   14.9500    1.4970 C   0  0  0  0  0  0  0  0  0  0  0  0
   -0.1550   14.8670    0.9660 C   0  0  0  0  0  0  0  0  0  0  0  0
   -5.1630   15.8890   -0.6560 C   0  0  0  0  0  0  0  0  0  0  0  0
   -5.7810   13.8640   -1.8940 C   0  0  0  0  0  0  0  0  0  0  0  0
   -3.4000   15.0130    2.3650 N   0  0  0  0  0  0  0  0  0  0  0  0
   -1.1110   14.8910    1.9020 N   0  0  0  0  0  0  0  0  0  0  0  0
   -5.3510   15.2730    0.5280 C   0  0  0  0  0  0  0  0  0  0  0  0
   -6.2990   13.6350   -0.4860 C   0  0  0  0  0  0  0  0  0  0  0  0
   -7.4360   13.2480   -0.2330 O   0  0  0  0  0  0  0  0  0  0  0  0
   -5.4330   13.9700    0.4930 N   0  0  0  0  0  0  0  0  0  0  0  0
  1  2  1  0
  2  3  1  0
  1  4  2  0
  1  5  1  1
  1  6  1  0
  6  7  1  0
  7  8  2  0
  7  9  1  6
  7 10  1  0
 11  3  1  6
 10 12  1  0
 11 13  1  0
 11 14  1  0
 14 15  1  1
 14 16  1  0
 13 17  1  0
 16 17  1  0
 18 12  1  1
 16 19  1  6
 18 20  1  0
 18 21  1  0
 17 22  1  1
 20 23  1  6
 21 24  1  0
 20 25  1  0
 24 25  1  0
 22 26  1  0
 22 27  1  0
 24 28  1  1
 25 29  1  6
 26 30  1  0
 26 31  2  0
 27 32  2  0
 30 32  1  0
 33 27  1  1
 30 34  2  0
 31 35  1  0
 33 36  1  0
 33 37  1  0
 34 38  1  0
 34 39  1  0
 35 39  2  0
 36 40  2  0
 37 41  1  0
 41 42  2  0
 40 43  1  0
 41 43  1  0
M  END
>  <%Rank>  (88) 
34.52381

>  <N_hits>  (88) 
2

>  <submitter_name>  (88) 
nan

>  <original SMILES>  (88) 
nan

>  <∆G_unbound>  (88) 
5.084537

>  <∆G_bound>  (88) 
-14.542938

>  <regarded>  (88) 
mArh-5cb5_C_0_C,mArh-x0837_0_A

>  <ref_pdb>  (88) 
nan

>  <smiles>  (88) 
Nc1ncnc2c1nc(C1C=CNC(=O)C1)n2C1OC(CO[P@@](=O)(O)O[P@@](=O)(O)OCC2OC(O)C(O)C2O)C(O)C1O

>  <submitter_email>  (88) 
nan

>  <disregarded>  (88) 


>  <LE>  (88) 
-0.456453

>  <submitter_institution>  (88) 
nan

>  <ref_mols>  (88) 
mArh-5cb5_C_0_C,mArh-x0837_0_A

>  <N_constrained_atoms>  (88) 
43.0

>  <ref_url>  (88) 
nan

>  <method>  (88) 
nan

>  <comRMSD>  (88) 
0.827178

>  <N_unconstrained_atoms>  (88) 
0.0

>  <∆∆G>  (88) 
-19.627475

>  <runtime>  (88) 
58.956855

>  <generation_date>  (88) 
nan

$$$$
mArh-x0689_0_A-mArh-5fud_B_0_B
     RDKit          3D

 25 26  0  0  0  0  0  0  0  0999 V2000
   -3.7140   14.5200    1.3230 N   0  0  0  0  0  0  0  0  0  0  0  0
   -4.3960   15.7680    1.2600 C   0  0  0  0  0  0  0  0  0  0  0  0
   -2.4190   14.5650    0.8580 C   0  0  0  0  0  0  0  0  0  0  0  0
   -2.1900   14.6610   -0.4620 N   0  0  0  0  0  0  0  0  0  0  0  0
   -1.4630   14.5070    1.7790 N   0  0  0  0  0  0  0  0  0  0  0  0
   -0.9050   14.6980   -0.8770 C   0  0  0  0  0  0  0  0  0  0  0  0
   -0.2050   14.5440    1.3320 C   0  0  0  0  0  0  0  0  0  0  0  0
   -0.6490   14.8050   -2.3570 C   0  0  0  0  0  0  0  0  0  0  0  0
    0.1400   14.6410    0.0080 C   0  0  0  0  0  0  0  0  0  0  0  0
   -0.5210   16.2550   -2.8170 C   0  0  0  0  0  0  0  0  0  0  0  0
    0.3530   16.5530   -4.0370 C   0  0  0  0  0  0  0  0  0  0  0  0
    0.4000   18.0210   -4.4670 C   0  0  0  0  0  0  0  0  0  0  0  0
    0.4700   18.2460   -5.9750 C   0  0  0  0  0  0  0  0  0  0  0  0
   -0.6670   19.0620   -6.4670 N   0  0  0  0  0  0  0  0  0  0  0  0
   -0.3460   19.7950   -7.9620 S   0  0  1  0  0  0  0  0  0  0  0  0
    0.6980   20.7720   -7.7750 O   0  0  0  0  0  0  0  0  0  0  0  0
   -0.1690   18.6730   -8.8820 O   0  0  0  0  0  0  0  0  0  0  0  0
   -1.8840   20.6470   -8.2960 C   0  0  0  0  0  0  0  0  0  0  0  0
   -2.1030   22.0400   -7.7720 C   0  0  0  0  0  0  0  0  0  0  0  0
   -3.5580   22.3470   -7.8010 N   0  0  0  0  0  0  0  0  0  0  0  0
   -4.0460   22.6390   -9.1750 C   0  0  0  0  0  0  0  0  0  0  0  0
   -3.9170   23.4680   -6.9200 C   0  0  0  0  0  0  0  0  0  0  0  0
   -5.5480   22.9550   -9.2150 C   0  0  0  0  0  0  0  0  0  0  0  0
   -5.4010   23.7810   -7.0080 C   0  0  0  0  0  0  0  0  0  0  0  0
   -5.8530   24.0420   -8.3380 O   0  0  0  0  0  0  0  0  0  0  0  0
  1  2  1  0
  1  3  1  0
  3  4  2  0
  3  5  1  0
  4  6  1  0
  5  7  2  0
  6  8  1  0
  6  9  2  0
  7  9  1  0
  8 10  1  0
 10 11  1  0
 11 12  1  0
 12 13  1  0
 13 14  1  0
 14 15  2  0
 15 16  2  0
 15 17  1  6
 15 18  1  0
 18 19  1  0
 19 20  1  0
 20 21  1  0
 20 22  1  0
 21 23  1  0
 22 24  1  0
 23 25  1  0
 24 25  1  0
M  CHG  1  17  -1
M  END
>  <%Rank>  (89) 
34.920635

>  <N_hits>  (89) 
2

>  <submitter_name>  (89) 
nan

>  <original SMILES>  (89) 
nan

>  <∆G_unbound>  (89) 
0.095044

>  <∆G_bound>  (89) 
-20.847961

>  <regarded>  (89) 
mArh-x0689_0_A,mArh-5fud_B_0_B

>  <ref_pdb>  (89) 
nan

>  <smiles>  (89) 
CNc1nccc(CCCCCN=S(=O)([O-])CCN2CCOCC2)n1

>  <submitter_email>  (89) 
nan

>  <disregarded>  (89) 


>  <LE>  (89) 
-0.83772

>  <submitter_institution>  (89) 
nan

>  <ref_mols>  (89) 
mArh-x0689_0_A,mArh-5fud_B_0_B

>  <N_constrained_atoms>  (89) 
20.0

>  <ref_url>  (89) 
nan

>  <method>  (89) 
nan

>  <comRMSD>  (89) 
0.620809

>  <N_unconstrained_atoms>  (89) 
5.0

>  <∆∆G>  (89) 
-20.943005

>  <runtime>  (89) 
30.642942

>  <generation_date>  (89) 
nan

$$$$
mArh-5cms_K_10_K-mArh-x0128_0_A
     RDKit          3D

 53 58  0  0  0  0  0  0  0  0999 V2000
   -1.5590   18.1180   -5.9960 P   0  0  1  0  0  0  0  0  0  0  0  0
   -0.9610   16.8950   -5.1620 O   0  0  0  0  0  0  0  0  0  0  0  0
    0.4560   16.7520   -5.1560 C   0  0  0  0  0  0  0  0  0  0  0  0
   -2.5610   17.7210   -7.0130 O   0  0  0  0  0  0  0  0  0  0  0  0
   -2.2200   19.1070   -4.9400 O   0  0  0  0  0  0  0  0  0  0  0  0
   -0.3540   18.9620   -6.5170 O   0  0  0  0  0  0  0  0  0  0  0  0
   -0.1950   19.7530   -7.8510 P   0  0  1  0  0  0  0  0  0  0  0  0
    0.7510   20.8990   -7.8250 O   0  0  0  0  0  0  0  0  0  0  0  0
    0.1890   18.6220   -8.8920 O   0  0  0  0  0  0  0  0  0  0  0  0
   -1.6610   20.0710   -8.3620 O   0  0  0  0  0  0  0  0  0  0  0  0
    0.9190   15.4270   -4.5360 C   0  0  1  0  0  0  0  0  0  0  0  0
   -2.3500   21.2510   -7.9950 C   0  0  0  0  0  0  0  0  0  0  0  0
    0.4340   15.3310   -3.1780 O   0  0  0  0  0  0  0  0  0  0  0  0
    0.4730   14.1310   -5.2090 C   0  0  1  0  0  0  0  0  0  0  0  0
    1.3990   13.0640   -5.1100 O   0  0  0  0  0  0  0  0  0  0  0  0
   -0.8390   13.8110   -4.5270 C   0  0  2  0  0  0  0  0  0  0  0  0
   -0.4890   14.2100   -3.0940 C   0  0  2  0  0  0  0  0  0  0  0  0
   -2.5650   22.0670   -9.2430 C   0  0  2  0  0  0  0  0  0  0  0  0
   -1.1130   12.4210   -4.7050 O   0  0  0  0  0  0  0  0  0  0  0  0
   -3.0560   23.4650   -9.0030 C   0  0  1  0  0  0  0  0  0  0  0  0
   -3.4220   21.4810  -10.2440 O   0  0  0  0  0  0  0  0  0  0  0  0
   -1.5790   14.6260   -2.2500 N   0  0  0  0  0  0  0  0  0  0  0  0
   -1.9160   24.2780   -8.8570 O   0  0  0  0  0  0  0  0  0  0  0  0
   -4.1500   22.4950  -10.9480 C   0  0  2  0  0  0  0  0  0  0  0  0
   -3.9790   23.8080  -10.2080 C   0  0  2  0  0  0  0  0  0  0  0  0
   -1.5100   14.7160   -0.8960 C   0  0  0  0  0  0  0  0  0  0  0  0
   -2.8390   15.0070   -2.6240 C   0  0  0  0  0  0  0  0  0  0  0  0
   -5.5260   22.2210  -11.0130 O   0  0  0  0  0  0  0  0  0  0  0  0
   -3.5950   24.8640  -11.0950 O   0  0  0  0  0  0  0  0  0  0  0  0
   -2.7480   15.1780   -0.5210 C   0  0  0  0  0  0  0  0  0  0  0  0
   -0.4610   14.4300   -0.1090 N   0  0  0  0  0  0  0  0  0  0  0  0
   -3.5670   15.3490   -1.5850 N   0  0  0  0  0  0  0  0  0  0  0  0
   -2.9600   15.4110    0.8350 C   0  0  0  0  0  0  0  0  0  0  0  0
   -0.7690   14.6520    1.1830 C   0  0  0  0  0  0  0  0  0  0  0  0
   -4.2000   15.9490    1.1810 N   0  0  0  0  0  0  0  0  0  0  0  0
   -1.9320   15.1190    1.7040 N   0  0  0  0  0  0  0  0  0  0  0  0
   -4.7390   15.7540    2.4760 C   0  0  0  0  0  0  0  0  0  0  0  0
   -6.0270   14.9620    2.3440 N   0  0  0  0  0  0  0  0  0  0  0  0
   -7.2850   15.2040    3.0510 C   0  0  0  0  0  0  0  0  0  0  0  0
   -6.0600   14.6860    0.9540 C   0  0  0  0  0  0  0  0  0  0  0  0
   -8.3670   15.2380    2.4560 O   0  0  0  0  0  0  0  0  0  0  0  0
   -7.2400   15.4210    4.4350 N   0  0  0  0  0  0  0  0  0  0  0  0
   -7.1440   14.8950    0.0900 C   0  0  0  0  0  0  0  0  0  0  0  0
   -4.8900   14.1860    0.4120 C   0  0  0  0  0  0  0  0  0  0  0  0
   -7.0270   14.6230   -1.2720 C   0  0  0  0  0  0  0  0  0  0  0  0
   -4.7740   13.9170   -0.9320 C   0  0  0  0  0  0  0  0  0  0  0  0
   -8.1900   16.0720    5.2890 C   0  0  0  0  0  0  0  0  0  0  0  0
   -5.8350   14.1380   -1.7810 C   0  0  0  0  0  0  0  0  0  0  0  0
   -8.9080   17.1830    4.8270 C   0  0  0  0  0  0  0  0  0  0  0  0
   -8.4670   15.6760    6.6020 C   0  0  0  0  0  0  0  0  0  0  0  0
   -9.8250   17.8870    5.5420 N   0  0  0  0  0  0  0  0  0  0  0  0
   -9.4090   16.3830    7.3660 C   0  0  0  0  0  0  0  0  0  0  0  0
  -10.0530   17.4680    6.7990 C   0  0  0  0  0  0  0  0  0  0  0  0
  1  2  1  0
  2  3  1  0
  1  4  2  0
  1  5  1  1
  1  6  1  0
  6  7  1  0
  7  8  2  0
  7  9  1  6
  7 10  1  0
 11  3  1  6
 10 12  1  0
 11 13  1  0
 11 14  1  0
 14 15  1  1
 14 16  1  0
 13 17  1  0
 16 17  1  0
 18 12  1  1
 16 19  1  1
 18 20  1  0
 18 21  1  0
 17 22  1  1
 20 23  1  6
 21 24  1  0
 20 25  1  0
 24 25  1  0
 22 26  1  0
 22 27  1  0
 24 28  1  1
 25 29  1  6
 26 30  2  0
 26 31  1  0
 27 32  2  0
 30 32  1  0
 30 33  1  0
 31 34  2  0
 33 35  1  0
 33 36  2  0
 34 36  1  0
 35 37  1  0
 37 38  1  0
 38 39  1  0
 38 40  1  0
 39 41  2  0
 39 42  1  0
 40 43  2  0
 40 44  1  0
 43 45  1  0
 44 46  2  0
 42 47  1  0
 45 48  2  0
 46 48  1  0
 47 49  2  0
 47 50  1  0
 49 51  1  0
 50 52  2  0
 51 53  2  0
 52 53  1  0
M  END
>  <%Rank>  (90) 
35.31746

>  <N_hits>  (90) 
2

>  <submitter_name>  (90) 
nan

>  <original SMILES>  (90) 
nan

>  <∆G_unbound>  (90) 
8.554341

>  <∆G_bound>  (90) 
-7.351848

>  <regarded>  (90) 
mArh-5cms_K_10_K,mArh-x0128_0_A

>  <ref_pdb>  (90) 
nan

>  <smiles>  (90) 
O=C(Nc1cccnc1)N(CNc1ncnc2c1ncn2C1OC(CO[P@@](=O)(O)O[P@@](=O)(O)OCC2OC(O)C(O)C2O)C(O)C1O)c1ccccc1

>  <submitter_email>  (90) 
nan

>  <disregarded>  (90) 


>  <LE>  (90) 
-0.300117

>  <submitter_institution>  (90) 
nan

>  <ref_mols>  (90) 
mArh-5cms_K_10_K,mArh-x0128_0_A

>  <N_constrained_atoms>  (90) 
52.0

>  <ref_url>  (90) 
nan

>  <method>  (90) 
nan

>  <comRMSD>  (90) 
0.811788

>  <N_unconstrained_atoms>  (90) 
1.0

>  <∆∆G>  (90) 
-15.906189

>  <runtime>  (90) 
82.26009

>  <generation_date>  (90) 
nan

$$$$
mArh-x0587_0_A-mArh-5cb5_L_0_L
     RDKit          3D

 48 52  0  0  0  0  0  0  0  0999 V2000
   -7.8630   14.8840    4.2270 N   0  0  0  0  0  0  0  0  0  0  0  0
   -8.3970   14.9360    2.9760 C   0  0  0  0  0  0  0  0  0  0  0  0
   -9.5960   15.1040    2.7800 O   0  0  0  0  0  0  0  0  0  0  0  0
   -7.4710   14.8010    1.8510 C   0  0  0  0  0  0  0  0  0  0  0  0
   -7.9480   14.6260    0.5740 C   0  0  0  0  0  0  0  0  0  0  0  0
   -6.1040   14.8490    1.9710 C   0  0  0  0  0  0  0  0  0  0  0  0
   -7.1520   14.5140   -0.5050 N   0  0  0  0  0  0  0  0  0  0  0  0
   -5.2640   14.7430    0.9310 N   0  0  0  0  0  0  0  0  0  0  0  0
   -5.8190   14.5810   -0.2850 C   0  0  0  0  0  0  0  0  0  0  0  0
   -4.8610   14.4760   -1.4840 C   0  0  0  0  0  0  0  0  0  0  0  0
   -4.7100   13.1670   -1.8520 F   0  0  0  0  0  0  0  0  0  0  0  0
   -5.3760   15.1180   -2.5690 F   0  0  0  0  0  0  0  0  0  0  0  0
   -3.5410   15.0150   -1.2640 N   0  0  0  0  0  0  0  0  0  0  0  0
   -2.6400   14.2300   -0.3930 C   0  0  2  0  0  0  0  0  0  0  0  0
   -2.9680   15.0450   -2.5620 C   0  0  0  0  0  0  0  0  0  0  0  0
   -2.4660   14.5900    1.1270 C   0  0  2  0  0  0  0  0  0  0  0  0
   -1.2490   14.2570   -1.1460 C   0  0  1  0  0  0  0  0  0  0  0  0
   -1.5700   15.0100   -2.3420 N   0  0  0  0  0  0  0  0  0  0  0  0
   -3.5180   15.3980    1.6970 N   0  0  0  0  0  0  0  0  0  0  0  0
   -0.7730   15.1580   -3.5290 C   0  0  1  0  0  0  0  0  0  0  0  0
   -1.2870   15.3210    1.4340 N   0  0  0  0  0  0  0  0  0  0  0  0
   -0.1170   14.9040   -0.5120 N   0  0  0  0  0  0  0  0  0  0  0  0
    0.5300   15.6750   -3.3200 O   0  0  0  0  0  0  0  0  0  0  0  0
   -0.5870   13.8980   -4.3880 C   0  0  2  0  0  0  0  0  0  0  0  0
   -0.0880   14.7630    0.9140 C   0  0  0  0  0  0  0  0  0  0  0  0
   -0.2110   12.7180   -3.6390 O   0  0  0  0  0  0  0  0  0  0  0  0
    1.0900   15.6280   -4.6360 C   0  0  1  0  0  0  0  0  0  0  0  0
    0.5950   14.3000   -5.2540 C   0  0  1  0  0  0  0  0  0  0  0  0
    0.6770   16.9120   -5.3770 C   0  0  0  0  0  0  0  0  0  0  0  0
    1.5710   13.2660   -5.2560 O   0  0  0  0  0  0  0  0  0  0  0  0
   -0.6810   16.8450   -5.7870 O   0  0  0  0  0  0  0  0  0  0  0  0
   -1.4740   18.2010   -6.0950 P   0  0  1  0  0  0  0  0  0  0  0  0
   -2.5770   18.0610   -7.0740 O   0  0  0  0  0  0  0  0  0  0  0  0
   -1.8620   18.7320   -4.6540 O   0  0  0  0  0  0  0  0  0  0  0  0
   -0.3050   19.2040   -6.4660 O   0  0  0  0  0  0  0  0  0  0  0  0
   -0.1760   19.9170   -7.8660 P   0  0  1  0  0  0  0  0  0  0  0  0
    0.8940   20.9570   -7.8460 O   0  0  0  0  0  0  0  0  0  0  0  0
    0.0920   18.6960   -8.8640 O   0  0  0  0  0  0  0  0  0  0  0  0
   -1.5820   20.4440   -8.3560 O   0  0  0  0  0  0  0  0  0  0  0  0
   -1.9960   21.7500   -8.0100 C   0  0  0  0  0  0  0  0  0  0  0  0
   -3.2900   22.0850   -8.7520 C   0  0  2  0  0  0  0  0  0  0  0  0
   -3.7560   23.5110   -8.5590 C   0  0  1  0  0  0  0  0  0  0  0  0
   -4.3450   21.2440   -8.2840 O   0  0  0  0  0  0  0  0  0  0  0  0
   -4.2480   24.1480   -9.7280 O   0  0  0  0  0  0  0  0  0  0  0  0
   -5.3110   21.9790   -7.5450 C   0  0  2  0  0  0  0  0  0  0  0  0
   -4.8970   23.4470   -7.5620 C   0  0  2  0  0  0  0  0  0  0  0  0
   -5.3500   21.4810   -6.2160 O   0  0  0  0  0  0  0  0  0  0  0  0
   -5.9270   24.2660   -8.1440 O   0  0  0  0  0  0  0  0  0  0  0  0
  1  2  1  0
  2  3  2  0
  2  4  1  0
  4  5  2  0
  4  6  1  0
  5  7  1  0
  6  8  2  0
  7  9  2  0
  8  9  1  0
  9 10  1  0
 10 11  1  0
 10 12  1  0
 10 13  1  0
 14 13  1  6
 13 15  1  0
 14 16  1  0
 14 17  1  0
 15 18  1  0
 17 18  1  0
 16 19  1  6
 20 18  1  1
 16 21  1  0
 17 22  1  1
 20 23  1  0
 20 24  1  0
 21 25  1  0
 22 25  1  0
 24 26  1  1
 23 27  1  0
 24 28  1  0
 27 28  1  0
 27 29  1  6
 28 30  1  1
 29 31  1  0
 31 32  1  0
 32 33  2  0
 32 34  1  1
 32 35  1  0
 35 36  1  0
 36 37  2  0
 36 38  1  6
 36 39  1  0
 39 40  1  0
 41 40  1  1
 41 42  1  0
 41 43  1  0
 42 44  1  6
 43 45  1  0
 42 46  1  0
 45 46  1  0
 45 47  1  1
 46 48  1  6
M  END
>  <%Rank>  (91) 
35.714286

>  <N_hits>  (91) 
2

>  <submitter_name>  (91) 
nan

>  <original SMILES>  (91) 
nan

>  <∆G_unbound>  (91) 
5.175315

>  <∆G_bound>  (91) 
-12.933728

>  <regarded>  (91) 
mArh-x0587_0_A,mArh-5cb5_L_0_L

>  <ref_pdb>  (91) 
nan

>  <smiles>  (91) 
NC(=O)c1cnc(C(F)(F)N2CN(C3OC(CO[P@@](=O)(O)O[P@@](=O)(O)OCC4OC(O)C(O)C4O)C(O)C3O)C3NCNC(N)C32)nc1

>  <submitter_email>  (91) 
nan

>  <disregarded>  (91) 


>  <LE>  (91) 
-0.377272

>  <submitter_institution>  (91) 
nan

>  <ref_mols>  (91) 
mArh-x0587_0_A,mArh-5cb5_L_0_L

>  <N_constrained_atoms>  (91) 
48.0

>  <ref_url>  (91) 
nan

>  <method>  (91) 
nan

>  <comRMSD>  (91) 
0.843313

>  <N_unconstrained_atoms>  (91) 
0.0

>  <∆∆G>  (91) 
-18.109044

>  <runtime>  (91) 
54.516877

>  <generation_date>  (91) 
nan

$$$$
mArh-5cb5_F_1_F-mArh-5cb5_C_0_C
     RDKit          3D

 39 42  0  0  0  0  0  0  0  0999 V2000
   -1.5580   18.4610   -5.9680 P   0  0  1  0  0  0  0  0  0  0  0  0
   -0.9320   17.2470   -5.1440 O   0  0  0  0  0  0  0  0  0  0  0  0
    0.4680   16.9960   -5.2460 C   0  0  0  0  0  0  0  0  0  0  0  0
   -2.5620   18.0660   -6.9980 O   0  0  0  0  0  0  0  0  0  0  0  0
   -2.2560   19.3420   -4.8350 O   0  0  0  0  0  0  0  0  0  0  0  0
   -0.3810   19.4590   -6.3450 O   0  0  0  0  0  0  0  0  0  0  0  0
   -0.1040   20.0560   -7.7820 P   0  0  2  0  0  0  0  0  0  0  0  0
   -1.0820   21.3380   -8.0170 O   0  0  0  0  0  0  0  0  0  0  0  0
    0.0840   18.9670   -8.8030 O   0  0  0  0  0  0  0  0  0  0  0  0
    1.2370   20.9060   -7.5610 O   0  0  0  0  0  0  0  0  0  0  0  0
    0.8100   15.7090   -4.4930 C   0  0  1  0  0  0  0  0  0  0  0  0
   -2.2750   20.9240   -8.5230 C   0  0  0  0  0  0  0  0  0  0  0  0
    0.1170   15.7510   -3.2400 O   0  0  0  0  0  0  0  0  0  0  0  0
    0.3960   14.4000   -5.1990 C   0  0  1  0  0  0  0  0  0  0  0  0
    1.5040   13.5750   -5.5290 O   0  0  0  0  0  0  0  0  0  0  0  0
   -0.5140   13.6730   -4.2230 C   0  0  1  0  0  0  0  0  0  0  0  0
   -0.3040   14.4200   -2.9140 C   0  0  2  0  0  0  0  0  0  0  0  0
   -3.4790   21.7700   -9.0340 C   0  0  1  0  0  0  0  0  0  0  0  0
   -1.8290   13.4170   -4.6870 O   0  0  0  0  0  0  0  0  0  0  0  0
   -4.6420   20.9790   -8.7470 O   0  0  0  0  0  0  0  0  0  0  0  0
   -4.0080   23.0190   -8.4000 C   0  0  2  0  0  0  0  0  0  0  0  0
   -1.3330   14.6030   -1.9350 N   0  0  0  0  0  0  0  0  0  0  0  0
   -3.3140   24.1790   -8.5680 O   0  0  0  0  0  0  0  0  0  0  0  0
   -1.1720   14.6220   -0.6010 C   0  0  0  0  0  0  0  0  0  0  0  0
   -4.2140   22.4560   -7.0200 C   0  0  2  0  0  0  0  0  0  0  0  0
   -5.1900   21.4220   -7.5080 C   0  0  2  0  0  0  0  0  0  0  0  0
   -2.6740   14.8020   -2.1930 C   0  0  0  0  0  0  0  0  0  0  0  0
   -4.9090   23.2620   -6.0860 O   0  0  0  0  0  0  0  0  0  0  0  0
   -5.3240   20.3340   -6.6420 O   0  0  0  0  0  0  0  0  0  0  0  0
   -2.4330   14.8430   -0.0820 C   0  0  0  0  0  0  0  0  0  0  0  0
   -0.0250   14.4650    0.0580 N   0  0  0  0  0  0  0  0  0  0  0  0
   -3.3680   14.9530   -1.0810 N   0  0  0  0  0  0  0  0  0  0  0  0
   -5.3350   24.3790   -6.5680 C   0  0  0  0  0  0  0  0  0  0  0  0
   -2.5260   14.9190    1.3030 C   0  0  0  0  0  0  0  0  0  0  0  0
   -0.2560   14.5420    1.3780 C   0  0  0  0  0  0  0  0  0  0  0  0
   -4.5050   25.4570   -5.9580 C   0  0  0  0  0  0  0  0  0  0  0  0
   -6.2520   24.4380   -7.3540 O   0  0  0  0  0  0  0  0  0  0  0  0
   -3.7110   15.1700    1.9570 N   0  0  0  0  0  0  0  0  0  0  0  0
   -1.4100   14.7500    2.0150 N   0  0  0  0  0  0  0  0  0  0  0  0
  1  2  1  0
  2  3  1  0
  1  4  2  0
  1  5  1  1
  1  6  1  0
  6  7  1  0
  7  8  1  0
  7  9  2  0
  7 10  1  1
 11  3  1  6
  8 12  1  0
 11 13  1  0
 11 14  1  0
 14 15  1  1
 14 16  1  0
 13 17  1  0
 16 17  1  0
 18 12  1  1
 16 19  1  6
 18 20  1  0
 18 21  1  0
 17 22  1  6
 21 23  1  1
 22 24  1  0
 21 25  1  0
 20 26  1  0
 25 26  1  0
 22 27  1  0
 25 28  1  1
 26 29  1  1
 24 30  2  0
 24 31  1  0
 27 32  2  0
 30 32  1  0
 28 33  1  0
 30 34  1  0
 31 35  2  0
 33 36  1  0
 33 37  2  0
 34 38  1  0
 34 39  2  0
 35 39  1  0
M  END
>  <%Rank>  (92) 
36.111111

>  <N_hits>  (92) 
2

>  <submitter_name>  (92) 
nan

>  <original SMILES>  (92) 
nan

>  <∆G_unbound>  (92) 
7.271863

>  <∆G_bound>  (92) 
-11.010643

>  <regarded>  (92) 
mArh-5cb5_F_1_F,mArh-5cb5_C_0_C

>  <ref_pdb>  (92) 
nan

>  <smiles>  (92) 
CC(=O)OC1C(O)OC(CO[P@@](=O)(O)O[P@](=O)(O)OCC2OC(n3cnc4c(N)ncnc43)C(O)C2O)C1O

>  <submitter_email>  (92) 
nan

>  <disregarded>  (92) 


>  <LE>  (92) 
-0.468782

>  <submitter_institution>  (92) 
nan

>  <ref_mols>  (92) 
mArh-5cb5_F_1_F,mArh-5cb5_C_0_C

>  <N_constrained_atoms>  (92) 
39.0

>  <ref_url>  (92) 
nan

>  <method>  (92) 
nan

>  <comRMSD>  (92) 
0.824131

>  <N_unconstrained_atoms>  (92) 
0.0

>  <∆∆G>  (92) 
-18.282506

>  <runtime>  (92) 
58.857219

>  <generation_date>  (92) 
nan

$$$$
mArh-3q6z_0_A-mArh-5cb5_A_0_A
     RDKit          3D

 44 48  0  0  0  0  0  0  0  0999 V2000
   -1.3510   18.3590   -5.8160 P   0  0  2  0  0  0  0  0  0  0  0  0
   -0.6490   16.9070   -5.6110 N   0  0  0  0  0  0  0  0  0  0  0  0
    0.5740   16.8230   -4.7840 C   0  0  0  0  0  0  0  0  0  0  0  0
   -2.0000   18.9800   -4.6470 O   0  0  0  0  0  0  0  0  0  0  0  0
   -2.3830   18.0800   -7.0150 O   0  0  0  0  0  0  0  0  0  0  0  0
   -0.1920   19.2170   -6.4280 O   0  0  0  0  0  0  0  0  0  0  0  0
   -0.3020   19.7320   -7.8780 P   0  0  2  0  0  0  0  0  0  0  0  0
   -1.6410   15.9250   -5.2610 O   0  0  0  0  0  0  0  0  0  0  0  0
    0.1010   18.7110   -8.8700 O   0  0  0  0  0  0  0  0  0  0  0  0
    0.6220   21.0390   -7.8260 O   0  0  0  0  0  0  0  0  0  0  0  0
   -1.8020   20.2850   -7.9240 O   0  0  0  0  0  0  0  0  0  0  0  0
    0.7400   15.5500   -3.9230 C   0  0  1  0  0  0  0  0  0  0  0  0
   -2.0860   21.5670   -8.4510 C   0  0  0  0  0  0  0  0  0  0  0  0
   -0.2090   15.5550   -2.8250 O   0  0  0  0  0  0  0  0  0  0  0  0
    0.5180   14.2440   -4.6980 C   0  0  1  0  0  0  0  0  0  0  0  0
    1.3970   13.2100   -4.2560 O   0  0  0  0  0  0  0  0  0  0  0  0
   -0.9230   13.8410   -4.3720 C   0  0  2  0  0  0  0  0  0  0  0  0
   -1.2370   14.5850   -3.0460 C   0  0  2  0  0  0  0  0  0  0  0  0
   -3.1980   22.2300   -7.6500 C   0  0  1  0  0  0  0  0  0  0  0  0
   -1.0190   12.4190   -4.2540 O   0  0  0  0  0  0  0  0  0  0  0  0
   -4.2860   23.0020   -8.4100 C   0  0  0  0  0  0  0  0  0  0  0  0
   -3.9920   21.2080   -7.0380 O   0  0  0  0  0  0  0  0  0  0  0  0
   -2.6150   15.0370   -2.7510 N   0  0  0  0  0  0  0  0  0  0  0  0
   -4.8810   22.1860   -9.3990 O   0  0  0  0  0  0  0  0  0  0  0  0
   -3.9610   24.1380   -9.1410 O   0  0  0  0  0  0  0  0  0  0  0  0
   -5.1820   21.8660   -6.5820 C   0  0  1  0  0  0  0  0  0  0  0  0
   -5.3550   23.1660   -7.3320 C   0  0  1  0  0  0  0  0  0  0  0  0
   -3.3680   15.0050   -1.4530 C   0  0  1  0  0  0  0  0  0  0  0  0
   -3.5560   14.5690   -3.7730 C   0  0  0  0  0  0  0  0  0  0  0  0
   -6.3360   21.1170   -6.8390 O   0  0  0  0  0  0  0  0  0  0  0  0
   -5.2830   24.2640   -6.4170 O   0  0  0  0  0  0  0  0  0  0  0  0
   -4.8360   14.8130   -1.9140 C   0  0  1  0  0  0  0  0  0  0  0  0
   -2.9460   14.2430   -0.1350 C   0  0  2  0  0  0  0  0  0  0  0  0
   -4.7960   14.1640   -3.1220 N   0  0  0  0  0  0  0  0  0  0  0  0
   -5.8010   14.1250   -0.8910 C   0  0  2  0  0  0  0  0  0  0  0  0
   -3.8710   13.2940    0.1870 C   0  0  0  0  0  0  0  0  0  0  0  0
   -2.7040   15.0190    1.1790 C   0  0  2  0  0  0  0  0  0  0  0  0
   -1.5450   13.6410   -0.4830 C   0  0  0  0  0  0  0  0  0  0  0  0
   -6.9510   14.9440   -0.5680 N   0  0  0  0  0  0  0  0  0  0  0  0
   -3.8530   15.7430    1.7060 N   0  0  0  0  0  0  0  0  0  0  0  0
   -5.2070   13.8250    0.3630 N   0  0  0  0  0  0  0  0  0  0  0  0
   -1.5220   15.8340    1.1670 N   0  0  0  0  0  0  0  0  0  0  0  0
   -0.5680   13.8230    0.5710 N   0  0  0  0  0  0  0  0  0  0  0  0
   -0.3240   15.2140    0.6780 C   0  0  0  0  0  0  0  0  0  0  0  0
  1  2  1  0
  2  3  1  0
  1  4  2  0
  1  5  1  6
  1  6  1  0
  6  7  1  0
  2  8  1  0
  7  9  2  0
  7 10  1  1
  7 11  1  0
 12  3  1  6
 11 13  1  0
 12 14  1  0
 12 15  1  0
 15 16  1  1
 15 17  1  0
 14 18  1  0
 17 18  1  0
 19 13  1  6
 17 20  1  1
 19 21  1  0
 19 22  1  0
 18 23  1  6
 21 24  1  0
 21 25  1  0
 22 26  1  0
 21 27  1  0
 26 27  1  0
 28 23  1  6
 23 29  1  0
 26 30  1  6
 27 31  1  1
 28 32  1  0
 28 33  1  0
 29 34  1  0
 32 34  1  6
 32 35  1  0
 33 36  1  1
 33 37  1  0
 33 38  1  0
 35 39  1  1
 37 40  1  6
 35 41  1  0
 36 41  1  0
 37 42  1  0
 38 43  1  0
 42 44  1  0
 43 44  1  0
M  END
>  <%Rank>  (93) 
36.507937

>  <N_hits>  (93) 
2

>  <submitter_name>  (93) 
nan

>  <original SMILES>  (93) 
nan

>  <∆G_unbound>  (93) 
11.132668

>  <∆G_bound>  (93) 
-10.29402

>  <regarded>  (93) 
mArh-3q6z_0_A,mArh-5cb5_A_0_A

>  <ref_pdb>  (93) 
nan

>  <smiles>  (93) 
NC1NCC2(CNCNC2N)C2C1NCN2C1OC(CN(O)[P@](=O)(O)O[P@](=O)(O)OCC2OC(O)C(O)C2(O)O)C(O)C1O

>  <submitter_email>  (93) 
nan

>  <disregarded>  (93) 


>  <LE>  (93) 
-0.48697

>  <submitter_institution>  (93) 
nan

>  <ref_mols>  (93) 
mArh-3q6z_0_A,mArh-5cb5_A_0_A

>  <N_constrained_atoms>  (93) 
44.0

>  <ref_url>  (93) 
nan

>  <method>  (93) 
nan

>  <comRMSD>  (93) 
0.877827

>  <N_unconstrained_atoms>  (93) 
0.0

>  <∆∆G>  (93) 
-21.426688

>  <runtime>  (93) 
32.596525

>  <generation_date>  (93) 
nan

$$$$
mArh-x0727_0_A-mArh-x0159_0_B
     RDKit          3D

 32 35  0  0  0  0  0  0  0  0999 V2000
    0.0980   11.4620   -5.6460 N   0  0  0  0  0  0  0  0  0  0  0  0
    0.9170   12.3560   -4.8180 C   0  0  1  0  0  0  0  0  0  0  0  0
    0.4930   13.8000   -5.0080 C   0  0  0  0  0  0  0  0  0  0  0  0
    0.6630   10.9930   -6.8080 C   0  0  0  0  0  0  0  0  0  0  0  0
    1.4740   11.6560   -7.3930 O   0  0  0  0  0  0  0  0  0  0  0  0
    0.7840   11.9370   -3.3510 C   0  0  0  0  0  0  0  0  0  0  0  0
    0.2910    9.5850   -7.2830 C   0  0  2  0  0  0  0  0  0  0  0  0
    0.2170   10.7220   -2.8780 O   0  0  0  0  0  0  0  0  0  0  0  0
    1.2820   12.8490   -2.4910 O   0  0  0  0  0  0  0  0  0  0  0  0
   -0.4700    9.5070   -8.5870 C   0  0  2  0  0  0  0  0  0  0  0  0
   -0.6120    8.8300   -6.3140 C   0  0  0  0  0  0  0  0  0  0  0  0
    0.2590   10.2630   -9.7130 C   0  0  0  0  0  0  0  0  0  0  0  0
   -1.8490    9.8710   -8.0690 C   0  0  0  0  0  0  0  0  0  0  0  0
   -1.9350    9.0010   -6.8000 C   0  0  0  0  0  0  0  0  0  0  0  0
    1.3270    9.3530  -10.2200 N   0  0  0  0  0  0  0  0  0  0  0  0
    1.8600    8.3070   -9.3560 C   0  0  0  0  0  0  0  0  0  0  0  0
    2.1120    9.6100  -11.2920 C   0  0  0  0  0  0  0  0  0  0  0  0
    1.2710    6.9960   -9.7680 C   0  0  0  0  0  0  0  0  0  0  0  0
    1.9730   10.7200  -12.0280 N   0  0  0  0  0  0  0  0  0  0  0  0
    3.0900    8.8450  -11.7470 N   0  0  0  0  0  0  0  0  0  0  0  0
    3.6020    9.5120  -12.8230 C   0  0  0  0  0  0  0  0  0  0  0  0
    2.9140   10.6980  -13.0230 C   0  0  0  0  0  0  0  0  0  0  0  0
    1.1460    6.0400   -8.6600 C   0  0  0  0  0  0  0  0  0  0  0  0
    2.0960    5.0510   -8.5280 C   0  0  0  0  0  0  0  0  0  0  0  0
    0.0710    6.1640   -7.7770 C   0  0  0  0  0  0  0  0  0  0  0  0
    3.2090   11.5900  -14.0420 C   0  0  0  0  0  0  0  0  0  0  0  0
    4.6550    9.1710  -13.6810 C   0  0  0  0  0  0  0  0  0  0  0  0
    1.9540    4.0670   -7.3940 C   0  0  0  0  0  0  0  0  0  0  0  0
   -0.0870    5.2880   -6.7350 C   0  0  0  0  0  0  0  0  0  0  0  0
    4.2610   11.2440  -14.8910 C   0  0  0  0  0  0  0  0  0  0  0  0
    4.9740   10.0560  -14.7180 C   0  0  0  0  0  0  0  0  0  0  0  0
    0.9190    4.1990   -6.5730 C   0  0  0  0  0  0  0  0  0  0  0  0
  1  2  1  0
  2  3  1  1
  1  4  1  0
  4  5  2  0
  2  6  1  0
  7  4  1  1
  6  8  2  0
  6  9  1  0
  7 10  1  0
  7 11  1  0
 10 12  1  6
 10 13  1  0
 11 14  1  0
 13 14  1  0
 12 15  1  0
 15 16  1  0
 15 17  1  0
 16 18  1  0
 17 19  1  0
 17 20  2  0
 20 21  1  0
 19 22  1  0
 21 22  2  0
 18 23  1  0
 23 24  2  0
 23 25  1  0
 22 26  1  0
 21 27  1  0
 24 28  1  0
 25 29  2  0
 26 30  2  0
 27 31  2  0
 30 31  1  0
 28 32  2  0
 29 32  1  0
M  END
>  <%Rank>  (94) 
36.904762

>  <N_hits>  (94) 
2

>  <submitter_name>  (94) 
nan

>  <original SMILES>  (94) 
nan

>  <∆G_unbound>  (94) 
3.778137

>  <∆G_bound>  (94) 
-4.124543

>  <regarded>  (94) 
mArh-x0727_0_A,mArh-x0159_0_B

>  <ref_pdb>  (94) 
nan

>  <smiles>  (94) 
C[C@H](NC(=O)C1CCCC1CN(CCc1ccccc1)c1nc2ccccc2[nH]1)C(=O)O

>  <submitter_email>  (94) 
nan

>  <disregarded>  (94) 


>  <LE>  (94) 
-0.246959

>  <submitter_institution>  (94) 
nan

>  <ref_mols>  (94) 
mArh-x0727_0_A,mArh-x0159_0_B

>  <N_constrained_atoms>  (94) 
31.0

>  <ref_url>  (94) 
nan

>  <method>  (94) 
nan

>  <comRMSD>  (94) 
0.624924

>  <N_unconstrained_atoms>  (94) 
1.0

>  <∆∆G>  (94) 
-7.90268

>  <runtime>  (94) 
26.951913

>  <generation_date>  (94) 
nan

$$$$
mArh-5cb5_D_0_D-mArh-x0371_0_A
     RDKit          3D

 52 58  0  0  0  0  0  0  0  0999 V2000
   -1.6900   18.6680   -5.9830 P   0  0  1  0  0  0  0  0  0  0  0  0
   -0.6390   18.0120   -4.9940 O   0  0  0  0  0  0  0  0  0  0  0  0
    0.2970   17.0630   -5.4420 C   0  0  0  0  0  0  0  0  0  0  0  0
   -2.5590   17.7830   -6.8290 O   0  0  0  0  0  0  0  0  0  0  0  0
   -2.5690   19.5050   -4.9660 O   0  0  0  0  0  0  0  0  0  0  0  0
   -0.9780   19.8580   -6.6510 O   0  0  0  0  0  0  0  0  0  0  0  0
   -0.2740   20.0770   -8.0040 P   0  0  1  0  0  0  0  0  0  0  0  0
    1.0120   20.7990   -7.8670 O   0  0  0  0  0  0  0  0  0  0  0  0
   -0.2280   18.6490   -8.7390 O   0  0  0  0  0  0  0  0  0  0  0  0
   -1.4190   20.8670   -8.7620 O   0  0  0  0  0  0  0  0  0  0  0  0
   -0.3510   15.7740   -5.0050 C   0  0  2  0  0  0  0  0  0  0  0  0
   -1.7410   22.0640   -8.0880 C   0  0  0  0  0  0  0  0  0  0  0  0
   -0.3500   15.7770   -3.5730 O   0  0  0  0  0  0  0  0  0  0  0  0
    0.2310   14.4220   -5.4000 C   0  0  1  0  0  0  0  0  0  0  0  0
    1.6200   14.2690   -5.2380 O   0  0  0  0  0  0  0  0  0  0  0  0
   -0.5280   13.5610   -4.4270 C   0  0  2  0  0  0  0  0  0  0  0  0
   -0.4660   14.4150   -3.1830 C   0  0  2  0  0  0  0  0  0  0  0  0
   -3.1980   22.2750   -7.7150 C   0  0  1  0  0  0  0  0  0  0  0  0
    0.1520   12.3010   -4.3410 O   0  0  0  0  0  0  0  0  0  0  0  0
   -3.8520   23.6090   -7.9790 C   0  0  1  0  0  0  0  0  0  0  0  0
   -4.1880   21.3680   -8.2140 O   0  0  0  0  0  0  0  0  0  0  0  0
   -1.4610   14.2030   -2.1460 N   0  0  0  0  0  0  0  0  0  0  0  0
   -4.2990   23.9040   -9.3010 O   0  0  0  0  0  0  0  0  0  0  0  0
   -5.3760   21.9310   -7.6170 C   0  0  2  0  0  0  0  0  0  0  0  0
   -4.9820   23.2940   -7.0500 C   0  0  2  0  0  0  0  0  0  0  0  0
   -1.5270   15.2260   -1.1340 C   0  0  1  0  0  0  0  0  0  0  0  0
   -2.8930   13.9910   -2.5070 C   0  0  0  0  0  0  0  0  0  0  0  0
   -5.8310   21.1530   -6.5290 O   0  0  0  0  0  0  0  0  0  0  0  0
   -6.0450   24.2210   -7.0610 O   0  0  0  0  0  0  0  0  0  0  0  0
   -2.4750   14.7100   -0.3130 C   0  0  2  0  0  0  0  0  0  0  0  0
   -0.2190   15.1970   -0.5530 N   0  0  0  0  0  0  0  0  0  0  0  0
   -3.6300   14.3290   -1.1970 C   0  0  2  0  0  0  0  0  0  0  0  0
   -2.6440   15.0480    0.9850 C   0  0  2  0  0  0  0  0  0  0  0  0
   -0.2400   15.6320    0.8060 C   0  0  0  0  0  0  0  0  0  0  0  0
   -4.2350   13.2550   -0.3140 C   0  0  0  0  0  0  0  0  0  0  0  0
   -4.7460   15.3750   -1.3340 C   0  0  0  0  0  0  0  0  0  0  0  0
   -3.4440   16.2050    1.2450 N   0  0  0  0  0  0  0  0  0  0  0  0
   -1.3470   15.0950    1.6040 N   0  0  0  0  0  0  0  0  0  0  0  0
   -5.7530   14.9500   -0.5900 C   0  0  0  0  0  0  0  0  0  0  0  0
   -5.4050   13.6630    0.0990 C   0  0  0  0  0  0  0  0  0  0  0  0
   -6.4460   13.4040    0.8730 N   0  0  0  0  0  0  0  0  0  0  0  0
   -7.0260   15.3110   -0.2510 N   0  0  0  0  0  0  0  0  0  0  0  0
   -7.3790   14.3820    0.6540 C   0  0  0  0  0  0  0  0  0  0  0  0
   -8.6830   14.3670    1.4000 C   0  0  0  0  0  0  0  0  0  0  0  0
   -8.3800   14.5490    2.8070 N   0  0  0  0  0  0  0  0  0  0  0  0
   -8.9110   15.6020    3.5220 C   0  0  0  0  0  0  0  0  0  0  0  0
   -9.5390   16.5020    2.9780 O   0  0  0  0  0  0  0  0  0  0  0  0
   -8.6820   15.5610    4.9530 C   0  0  0  0  0  0  0  0  0  0  0  0
   -8.0500   14.4840    5.5130 O   0  0  0  0  0  0  0  0  0  0  0  0
   -9.0030   16.4630    5.9470 C   0  0  0  0  0  0  0  0  0  0  0  0
   -8.5430   15.9060    7.1670 C   0  0  0  0  0  0  0  0  0  0  0  0
   -7.9690   14.7000    6.8490 C   0  0  0  0  0  0  0  0  0  0  0  0
  1  2  1  0
  2  3  1  0
  1  4  2  0
  1  5  1  1
  1  6  1  0
  6  7  1  0
  7  8  2  0
  7  9  1  6
  7 10  1  0
 11  3  1  6
 10 12  1  0
 11 13  1  0
 11 14  1  0
 14 15  1  1
 14 16  1  0
 13 17  1  0
 16 17  1  0
 18 12  1  6
 16 19  1  1
 18 20  1  0
 18 21  1  0
 17 22  1  6
 20 23  1  6
 21 24  1  0
 20 25  1  0
 24 25  1  0
 22 26  1  0
 22 27  1  0
 24 28  1  1
 25 29  1  6
 26 30  1  0
 26 31  1  1
 32 27  1  6
 30 32  1  0
 30 33  1  1
 31 34  1  0
 32 35  1  0
 32 36  1  0
 33 37  1  6
 33 38  1  0
 34 38  1  0
 36 39  2  0
 35 40  2  0
 39 40  1  0
 40 41  1  0
 39 42  1  0
 41 43  1  0
 42 43  2  0
 43 44  1  0
 44 45  1  0
 45 46  1  0
 46 47  2  0
 46 48  1  0
 48 49  1  0
 48 50  2  0
 50 51  1  0
 49 52  1  0
 51 52  2  0
M  END
>  <%Rank>  (95) 
37.301587

>  <N_hits>  (95) 
2

>  <submitter_name>  (95) 
nan

>  <original SMILES>  (95) 
nan

>  <∆G_unbound>  (95) 
9.132815

>  <∆G_bound>  (95) 
-13.578365

>  <regarded>  (95) 
mArh-5cb5_D_0_D,mArh-x0371_0_A

>  <ref_pdb>  (95) 
nan

>  <smiles>  (95) 
NC1NCNC2C1C1(C=c3nc(CNC(=O)c4ccco4)[nH]c3=C1)CN2C1OC(CO[P@@](=O)(O)O[P@@](=O)(O)OCC2OC(O)C(O)C2O)C(O)C1O

>  <submitter_email>  (95) 
nan

>  <disregarded>  (95) 


>  <LE>  (95) 
-0.436753

>  <submitter_institution>  (95) 
nan

>  <ref_mols>  (95) 
mArh-5cb5_D_0_D,mArh-x0371_0_A

>  <N_constrained_atoms>  (95) 
52.0

>  <ref_url>  (95) 
nan

>  <method>  (95) 
nan

>  <comRMSD>  (95) 
0.908698

>  <N_unconstrained_atoms>  (95) 
0.0

>  <∆∆G>  (95) 
-22.71118

>  <runtime>  (95) 
53.026263

>  <generation_date>  (95) 
nan

$$$$
mArh-x0104_0_A-mArh-x0933_0_A
     RDKit          3D

 17 18  0  0  0  0  0  0  0  0999 V2000
   -6.7920   14.6690    2.7010 N   0  0  0  0  0  0  0  0  0  0  0  0
   -8.0240   15.1050    3.1780 C   0  0  0  0  0  0  0  0  0  0  0  0
   -7.9920   15.2300    4.5610 N   0  0  0  0  0  0  0  0  0  0  0  0
   -6.2500   14.7560    1.4030 C   0  0  0  0  0  0  0  0  0  0  0  0
   -8.9950   15.3420    2.4710 O   0  0  0  0  0  0  0  0  0  0  0  0
   -4.8900   14.9160    1.1240 C   0  0  0  0  0  0  0  0  0  0  0  0
   -7.1190   14.6820    0.3140 C   0  0  0  0  0  0  0  0  0  0  0  0
   -4.3700   15.0020   -0.1270 N   0  0  0  0  0  0  0  0  0  0  0  0
   -6.6110   14.7720   -0.9780 C   0  0  0  0  0  0  0  0  0  0  0  0
   -9.0990   15.1800    5.3810 C   0  0  0  0  0  0  0  0  0  0  0  0
   -5.2470   14.9300   -1.1480 C   0  0  0  0  0  0  0  0  0  0  0  0
   -9.2560   15.2360    6.7480 C   0  0  0  0  0  0  0  0  0  0  0  0
  -10.5860   15.0150    4.5650 S   0  0  0  0  0  0  0  0  0  0  0  0
   -4.8150   15.0090   -2.4550 O   0  0  0  0  0  0  0  0  0  0  0  0
  -11.4630   15.0190    6.0390 C   0  0  0  0  0  0  0  0  0  0  0  0
  -10.6290   15.1430    7.1280 C   0  0  0  0  0  0  0  0  0  0  0  0
   -3.4020   15.0830   -2.5880 C   0  0  0  0  0  0  0  0  0  0  0  0
  1  2  1  0
  2  3  1  0
  1  4  1  0
  2  5  2  0
  4  6  2  0
  4  7  1  0
  6  8  1  0
  7  9  2  0
  3 10  1  0
  8 11  2  0
  9 11  1  0
 10 12  2  0
 10 13  1  0
 11 14  1  0
 13 15  1  0
 12 16  1  0
 15 16  2  0
 14 17  1  0
M  END
>  <%Rank>  (96) 
37.698413

>  <N_hits>  (96) 
2

>  <submitter_name>  (96) 
nan

>  <original SMILES>  (96) 
nan

>  <∆G_unbound>  (96) 
0.439615

>  <∆G_bound>  (96) 
-2.913407

>  <regarded>  (96) 
mArh-x0104_0_A,mArh-x0933_0_A

>  <ref_pdb>  (96) 
nan

>  <smiles>  (96) 
COc1ccc(NC(=O)Nc2cccs2)cn1

>  <submitter_email>  (96) 
nan

>  <disregarded>  (96) 


>  <LE>  (96) 
-0.197237

>  <submitter_institution>  (96) 
nan

>  <ref_mols>  (96) 
mArh-x0104_0_A,mArh-x0933_0_A

>  <N_constrained_atoms>  (96) 
17.0

>  <ref_url>  (96) 
nan

>  <method>  (96) 
nan

>  <comRMSD>  (96) 
0.396752

>  <N_unconstrained_atoms>  (96) 
0.0

>  <∆∆G>  (96) 
-3.353021

>  <runtime>  (96) 
26.513555

>  <generation_date>  (96) 
nan

$$$$
mArh-5cb5_D_0_D-mArh-x0926_0_A
     RDKit          3D

 42 46  0  0  0  0  0  0  0  0999 V2000
   -1.6200   18.6440   -5.9850 P   0  0  1  0  0  0  0  0  0  0  0  0
   -0.5660   17.9750   -5.0000 O   0  0  0  0  0  0  0  0  0  0  0  0
    0.4840   17.1860   -5.5180 C   0  0  0  0  0  0  0  0  0  0  0  0
   -2.4960   17.7810   -6.8400 O   0  0  0  0  0  0  0  0  0  0  0  0
   -2.4800   19.5020   -4.9510 O   0  0  0  0  0  0  0  0  0  0  0  0
   -0.7890   19.8030   -6.5610 O   0  0  0  0  0  0  0  0  0  0  0  0
   -0.3240   20.1000   -8.0020 P   0  0  1  0  0  0  0  0  0  0  0  0
    0.8920   20.9500   -8.0120 O   0  0  0  0  0  0  0  0  0  0  0  0
   -0.0510   18.6820   -8.7280 O   0  0  0  0  0  0  0  0  0  0  0  0
   -1.6040   20.5350   -8.8060 O   0  0  0  0  0  0  0  0  0  0  0  0
    0.0140   15.8270   -5.0730 C   0  0  2  0  0  0  0  0  0  0  0  0
   -2.0890   21.8510   -8.7620 C   0  0  0  0  0  0  0  0  0  0  0  0
    0.0770   15.8050   -3.6760 O   0  0  0  0  0  0  0  0  0  0  0  0
    0.6150   14.4500   -5.3640 C   0  0  1  0  0  0  0  0  0  0  0  0
    1.9660   14.2990   -5.0160 O   0  0  0  0  0  0  0  0  0  0  0  0
   -0.1640   13.5400   -4.4080 C   0  0  2  0  0  0  0  0  0  0  0  0
   -0.7880   14.7030   -3.6320 C   0  0  1  0  0  0  0  0  0  0  0  0
   -3.2060   22.1290   -7.8160 C   0  0  1  0  0  0  0  0  0  0  0  0
    0.7520   12.7380   -3.6640 O   0  0  0  0  0  0  0  0  0  0  0  0
   -3.8080   23.5010   -7.9090 C   0  0  1  0  0  0  0  0  0  0  0  0
   -4.3360   21.3140   -8.1300 O   0  0  0  0  0  0  0  0  0  0  0  0
   -1.4860   14.6870   -2.4260 N   0  0  0  0  0  0  0  0  0  0  0  0
   -4.3420   23.8820   -9.1800 O   0  0  0  0  0  0  0  0  0  0  0  0
   -5.4290   21.9450   -7.4630 C   0  0  2  0  0  0  0  0  0  0  0  0
   -4.8780   23.2450   -6.8970 C   0  0  2  0  0  0  0  0  0  0  0  0
   -1.1290   14.6650   -1.0790 C   0  0  0  0  0  0  0  0  0  0  0  0
   -2.8310   14.7230   -2.5280 C   0  0  0  0  0  0  0  0  0  0  0  0
   -5.8790   21.1530   -6.3900 O   0  0  0  0  0  0  0  0  0  0  0  0
   -5.8510   24.2630   -6.7990 O   0  0  0  0  0  0  0  0  0  0  0  0
   -2.3420   14.6920   -0.5150 C   0  0  0  0  0  0  0  0  0  0  0  0
    0.0170   14.6330   -0.3670 N   0  0  0  0  0  0  0  0  0  0  0  0
   -3.3770   14.7280   -1.3960 N   0  0  0  0  0  0  0  0  0  0  0  0
   -2.4770   14.6910    0.8050 C   0  0  0  0  0  0  0  0  0  0  0  0
   -0.2460   14.6310    0.9900 C   0  0  0  0  0  0  0  0  0  0  0  0
   -1.4350   14.6520    1.6480 N   0  0  0  0  0  0  0  0  0  0  0  0
   -3.8910   14.7820    0.9470 C   0  0  1  0  0  0  0  0  0  0  0  0
   -4.2780   16.1080    0.5340 C   0  0  0  0  0  0  0  0  0  0  0  0
   -5.0680   13.8510    1.0590 C   0  0  0  0  0  0  0  0  0  0  0  0
   -4.5550   16.0630   -0.9040 N   0  0  0  0  0  0  0  0  0  0  0  0
   -5.9270   14.2840   -0.1370 C   0  0  0  0  0  0  0  0  0  0  0  0
   -7.1450   14.1400   -0.2000 O   0  0  0  0  0  0  0  0  0  0  0  0
   -5.2710   14.9030   -1.1930 N   0  0  0  0  0  0  0  0  0  0  0  0
  1  2  1  0
  2  3  1  0
  1  4  2  0
  1  5  1  1
  1  6  1  0
  6  7  1  0
  7  8  2  0
  7  9  1  6
  7 10  1  0
 11  3  1  6
 10 12  1  0
 11 13  1  0
 11 14  1  0
 14 15  1  1
 14 16  1  0
 13 17  1  0
 16 17  1  0
 18 12  1  6
 16 19  1  1
 18 20  1  0
 18 21  1  0
 17 22  1  1
 20 23  1  6
 21 24  1  0
 20 25  1  0
 24 25  1  0
 22 26  1  0
 22 27  1  0
 24 28  1  1
 25 29  1  6
 26 30  2  0
 26 31  1  0
 27 32  2  0
 30 32  1  0
 30 33  1  0
 31 34  2  0
 33 35  2  0
 34 35  1  0
 36 33  1  6
 36 37  1  0
 36 38  1  0
 37 39  1  0
 38 40  1  0
 40 41  2  0
 39 42  1  0
 40 42  1  0
M  END
>  <%Rank>  (97) 
38.095238

>  <N_hits>  (97) 
2

>  <submitter_name>  (97) 
nan

>  <original SMILES>  (97) 
nan

>  <∆G_unbound>  (97) 
5.130438

>  <∆G_bound>  (97) 
-12.949267

>  <regarded>  (97) 
mArh-5cb5_D_0_D,mArh-x0926_0_A

>  <ref_pdb>  (97) 
nan

>  <smiles>  (97) 
O=C1CC(c2ncnc3c2ncn3C2OC(CO[P@@](=O)(O)O[P@@](=O)(O)OCC3OC(O)C(O)C3O)C(O)C2O)CNN1

>  <submitter_email>  (97) 
nan

>  <disregarded>  (97) 


>  <LE>  (97) 
-0.430469

>  <submitter_institution>  (97) 
nan

>  <ref_mols>  (97) 
mArh-5cb5_D_0_D,mArh-x0926_0_A

>  <N_constrained_atoms>  (97) 
42.0

>  <ref_url>  (97) 
nan

>  <method>  (97) 
nan

>  <comRMSD>  (97) 
0.841388

>  <N_unconstrained_atoms>  (97) 
0.0

>  <∆∆G>  (97) 
-18.079705

>  <runtime>  (97) 
75.45203

>  <generation_date>  (97) 
nan

$$$$
mArh-x0926_0_A-mArh-5cms_N_13_N
     RDKit          3D

 42 46  0  0  0  0  0  0  0  0999 V2000
   -7.1290   14.1740   -0.2680 O   0  0  0  0  0  0  0  0  0  0  0  0
   -5.9110   14.3410   -0.2220 C   0  0  0  0  0  0  0  0  0  0  0  0
   -5.0500   13.9320    1.0030 C   0  0  0  0  0  0  0  0  0  0  0  0
   -5.2470   14.9460   -1.2790 N   0  0  0  0  0  0  0  0  0  0  0  0
   -4.3570   16.0090   -1.0220 N   0  0  0  0  0  0  0  0  0  0  0  0
   -3.8230   14.7970    0.8830 C   0  0  2  0  0  0  0  0  0  0  0  0
   -4.1840   16.1170    0.4270 C   0  0  0  0  0  0  0  0  0  0  0  0
   -2.3920   14.6520    0.6990 C   0  0  0  0  0  0  0  0  0  0  0  0
   -1.4050   14.5790    1.6060 N   0  0  0  0  0  0  0  0  0  0  0  0
   -2.1300   14.6330   -0.6140 C   0  0  0  0  0  0  0  0  0  0  0  0
   -0.8570   14.5560   -1.0560 C   0  0  0  0  0  0  0  0  0  0  0  0
   -0.1660   14.5120    1.0560 C   0  0  0  0  0  0  0  0  0  0  0  0
   -3.0650   14.6950   -1.6030 N   0  0  0  0  0  0  0  0  0  0  0  0
    0.2380   14.4940   -0.2730 N   0  0  0  0  0  0  0  0  0  0  0  0
   -1.0620   14.5710   -2.4220 N   0  0  0  0  0  0  0  0  0  0  0  0
   -2.3870   14.6540   -2.6710 C   0  0  0  0  0  0  0  0  0  0  0  0
   -0.2230   14.5290   -3.5240 C   0  0  1  0  0  0  0  0  0  0  0  0
    0.6820   15.5740   -3.7130 O   0  0  0  0  0  0  0  0  0  0  0  0
    0.1960   13.3390   -4.3320 C   0  0  2  0  0  0  0  0  0  0  0  0
    1.4360   12.7010   -4.0230 O   0  0  0  0  0  0  0  0  0  0  0  0
    0.2370   15.6530   -5.0570 C   0  0  2  0  0  0  0  0  0  0  0  0
    0.3660   14.1930   -5.5830 C   0  0  1  0  0  0  0  0  0  0  0  0
    0.7890   16.9280   -5.6850 C   0  0  0  0  0  0  0  0  0  0  0  0
    1.5410   13.7820   -6.1710 O   0  0  0  0  0  0  0  0  0  0  0  0
   -0.1870   17.4560   -6.5910 O   0  0  0  0  0  0  0  0  0  0  0  0
   -1.5910   18.1580   -6.2300 P   0  0  1  0  0  0  0  0  0  0  0  0
   -2.7620   17.4330   -6.7610 O   0  0  0  0  0  0  0  0  0  0  0  0
   -1.6350   18.3190   -4.6450 O   0  0  0  0  0  0  0  0  0  0  0  0
   -1.4120   19.6140   -6.7660 O   0  0  0  0  0  0  0  0  0  0  0  0
   -0.4480   19.9220   -7.9690 P   0  0  1  0  0  0  0  0  0  0  0  0
    0.8350   20.5870   -7.6340 O   0  0  0  0  0  0  0  0  0  0  0  0
   -0.2420   18.5510   -8.7570 O   0  0  0  0  0  0  0  0  0  0  0  0
   -1.3810   20.7200   -9.0060 O   0  0  0  0  0  0  0  0  0  0  0  0
   -1.6250   22.0590   -8.6070 C   0  0  0  0  0  0  0  0  0  0  0  0
   -2.9200   22.7030   -9.1170 C   0  0  1  0  0  0  0  0  0  0  0  0
   -3.0500   23.1620  -10.5550 C   0  0  1  0  0  0  0  0  0  0  0  0
   -4.0920   21.9210   -8.9470 O   0  0  0  0  0  0  0  0  0  0  0  0
   -2.9650   22.1240  -11.5190 O   0  0  0  0  0  0  0  0  0  0  0  0
   -5.0850   22.8340   -9.4500 C   0  0  2  0  0  0  0  0  0  0  0  0
   -4.4810   23.6110  -10.6300 C   0  0  2  0  0  0  0  0  0  0  0  0
   -5.3680   23.7960   -8.4480 O   0  0  0  0  0  0  0  0  0  0  0  0
   -5.0280   23.2340  -11.8440 O   0  0  0  0  0  0  0  0  0  0  0  0
  1  2  2  0
  2  3  1  0
  2  4  1  0
  4  5  1  0
  3  6  1  0
  5  7  1  0
  6  7  1  0
  6  8  1  6
  8  9  2  0
  8 10  1  0
 10 11  2  0
  9 12  1  0
 10 13  1  0
 11 14  1  0
 12 14  2  0
 11 15  1  0
 13 16  2  0
 15 16  1  0
 17 15  1  1
 17 18  1  0
 17 19  1  0
 19 20  1  1
 18 21  1  0
 19 22  1  0
 21 22  1  0
 21 23  1  6
 22 24  1  1
 23 25  1  0
 25 26  1  0
 26 27  2  0
 26 28  1  1
 26 29  1  0
 29 30  1  0
 30 31  2  0
 30 32  1  6
 30 33  1  0
 33 34  1  0
 35 34  1  6
 35 36  1  0
 35 37  1  0
 36 38  1  6
 37 39  1  0
 36 40  1  0
 39 40  1  0
 39 41  1  1
 40 42  1  6
M  END
>  <%Rank>  (98) 
38.492063

>  <N_hits>  (98) 
2

>  <submitter_name>  (98) 
nan

>  <original SMILES>  (98) 
nan

>  <∆G_unbound>  (98) 
7.679988

>  <∆G_bound>  (98) 
-9.701829

>  <regarded>  (98) 
mArh-x0926_0_A,mArh-5cms_N_13_N

>  <ref_pdb>  (98) 
nan

>  <smiles>  (98) 
O=C1CC(c2ncnc3c2ncn3C2OC(CO[P@@](=O)(O)O[P@@](=O)(O)OCC3OC(O)C(O)C3O)C(O)C2O)CNN1

>  <submitter_email>  (98) 
nan

>  <disregarded>  (98) 


>  <LE>  (98) 
-0.413853

>  <submitter_institution>  (98) 
nan

>  <ref_mols>  (98) 
mArh-x0926_0_A,mArh-5cms_N_13_N

>  <N_constrained_atoms>  (98) 
42.0

>  <ref_url>  (98) 
nan

>  <method>  (98) 
nan

>  <comRMSD>  (98) 
0.835435

>  <N_unconstrained_atoms>  (98) 
0.0

>  <∆∆G>  (98) 
-17.381817

>  <runtime>  (98) 
28.639415

>  <generation_date>  (98) 
nan

$$$$
mArh-5cb5_L_0_L-mArh-x0895_1_A
     RDKit          3D

 42 46  0  0  0  0  0  0  0  0999 V2000
   -1.5120   18.1910   -6.0480 P   0  0  1  0  0  0  0  0  0  0  0  0
   -0.7940   16.7670   -5.6460 O   0  0  0  0  0  0  0  0  0  0  0  0
    0.5210   16.8810   -5.3410 C   0  0  0  0  0  0  0  0  0  0  0  0
   -2.6420   18.0340   -7.0000 O   0  0  0  0  0  0  0  0  0  0  0  0
   -1.9550   18.8740   -4.6840 O   0  0  0  0  0  0  0  0  0  0  0  0
   -0.3460   19.1160   -6.5030 O   0  0  0  0  0  0  0  0  0  0  0  0
   -0.1880   19.8520   -7.8530 P   0  0  1  0  0  0  0  0  0  0  0  0
    0.7960   20.9780   -7.8400 O   0  0  0  0  0  0  0  0  0  0  0  0
    0.1570   18.6940   -8.8900 O   0  0  0  0  0  0  0  0  0  0  0  0
   -1.6640   20.2740   -8.2000 O   0  0  0  0  0  0  0  0  0  0  0  0
    0.8810   15.6380   -4.5280 C   0  0  1  0  0  0  0  0  0  0  0  0
   -2.0040   21.5190   -8.7110 C   0  0  0  0  0  0  0  0  0  0  0  0
    0.0820   15.6800   -3.3330 O   0  0  0  0  0  0  0  0  0  0  0  0
    0.5970   14.2990   -5.2410 C   0  0  1  0  0  0  0  0  0  0  0  0
    1.6980   13.3940   -5.2330 O   0  0  0  0  0  0  0  0  0  0  0  0
   -0.5610   13.7060   -4.4770 C   0  0  2  0  0  0  0  0  0  0  0  0
   -0.2600   14.3270   -3.0500 C   0  0  2  0  0  0  0  0  0  0  0  0
   -3.1750   22.1030   -7.9760 C   0  0  1  0  0  0  0  0  0  0  0  0
   -0.4430   12.2720   -4.4190 O   0  0  0  0  0  0  0  0  0  0  0  0
   -3.6790   23.4750   -8.3640 C   0  0  1  0  0  0  0  0  0  0  0  0
   -4.3280   21.3330   -8.2750 O   0  0  0  0  0  0  0  0  0  0  0  0
   -1.3360   14.1940   -2.1030 N   0  0  0  0  0  0  0  0  0  0  0  0
   -3.8900   23.7180   -9.7530 O   0  0  0  0  0  0  0  0  0  0  0  0
   -5.3670   22.0380   -7.6250 C   0  0  2  0  0  0  0  0  0  0  0  0
   -5.0140   23.4110   -7.6420 C   0  0  2  0  0  0  0  0  0  0  0  0
   -1.0160   14.7020   -0.7860 C   0  0  1  0  0  0  0  0  0  0  0  0
   -2.5710   14.8610   -2.4820 C   0  0  0  0  0  0  0  0  0  0  0  0
   -5.5000   21.5740   -6.2840 O   0  0  0  0  0  0  0  0  0  0  0  0
   -5.9550   24.1760   -8.3700 O   0  0  0  0  0  0  0  0  0  0  0  0
   -2.3760   14.9410   -0.3360 C   0  0  2  0  0  0  0  0  0  0  0  0
   -0.3630   13.7650    0.0920 N   0  0  0  0  0  0  0  0  0  0  0  0
   -3.1980   15.4670   -1.3770 N   0  0  0  0  0  0  0  0  0  0  0  0
   -2.2400   15.5690    0.9050 C   0  0  1  0  0  0  0  0  0  0  0  0
   -0.6810   13.9930    1.5150 C   0  0  0  0  0  0  0  0  0  0  0  0
   -3.4360   16.3480    1.2020 N   0  0  0  0  0  0  0  0  0  0  0  0
   -2.0570   14.4970    1.7440 N   0  0  0  0  0  0  0  0  0  0  0  0
   -3.2640   13.7380    1.4580 C   0  0  2  0  0  0  0  0  0  0  0  0
   -3.5970   13.3930    0.1130 C   0  0  0  0  0  0  0  0  0  0  0  0
   -4.3320   14.6260    1.8180 N   0  0  0  0  0  0  0  0  0  0  0  0
   -4.7500   14.2550   -0.2600 N   0  0  0  0  0  0  0  0  0  0  0  0
   -5.3540   14.5640    0.9100 C   0  0  0  0  0  0  0  0  0  0  0  0
   -6.5380   14.7380    1.1080 O   0  0  0  0  0  0  0  0  0  0  0  0
  1  2  1  0
  2  3  1  0
  1  4  2  0
  1  5  1  1
  1  6  1  0
  6  7  1  0
  7  8  2  0
  7  9  1  6
  7 10  1  0
 11  3  1  6
 10 12  1  0
 11 13  1  0
 11 14  1  0
 14 15  1  1
 14 16  1  0
 13 17  1  0
 16 17  1  0
 18 12  1  6
 16 19  1  1
 18 20  1  0
 18 21  1  0
 17 22  1  1
 20 23  1  6
 21 24  1  0
 20 25  1  0
 24 25  1  0
 22 26  1  0
 22 27  1  0
 24 28  1  1
 25 29  1  6
 26 30  1  0
 26 31  1  1
 27 32  1  0
 30 32  1  6
 30 33  1  0
 31 34  1  0
 33 35  1  1
 33 36  1  0
 34 36  1  0
 37 36  1  6
 37 38  1  0
 37 39  1  0
 38 40  1  0
 39 41  1  0
 40 41  1  0
 41 42  2  0
M  END
>  <%Rank>  (99) 
38.888889

>  <N_hits>  (99) 
2

>  <submitter_name>  (99) 
nan

>  <original SMILES>  (99) 
nan

>  <∆G_unbound>  (99) 
5.71384

>  <∆G_bound>  (99) 
-5.172026

>  <regarded>  (99) 
mArh-5cb5_L_0_L,mArh-x0895_1_A

>  <ref_pdb>  (99) 
nan

>  <smiles>  (99) 
NC1C2NCN(C3OC(CO[P@@](=O)(O)O[P@@](=O)(O)OCC4OC(O)C(O)C4O)C(O)C3O)C2NCN1C1CNC(=O)N1

>  <submitter_email>  (99) 
nan

>  <disregarded>  (99) 


>  <LE>  (99) 
-0.259187

>  <submitter_institution>  (99) 
nan

>  <ref_mols>  (99) 
mArh-5cb5_L_0_L,mArh-x0895_1_A

>  <N_constrained_atoms>  (99) 
42.0

>  <ref_url>  (99) 
nan

>  <method>  (99) 
nan

>  <comRMSD>  (99) 
0.758975

>  <N_unconstrained_atoms>  (99) 
0.0

>  <∆∆G>  (99) 
-10.885866

>  <runtime>  (99) 
42.790838

>  <generation_date>  (99) 
nan

$$$$
mArh-5cb5_F_1_F-mArh-mac-242_0_A
     RDKit          3D

 39 42  0  0  0  0  0  0  0  0999 V2000
   -1.5600   18.4580   -5.9650 P   0  0  1  0  0  0  0  0  0  0  0  0
   -0.9290   17.2460   -5.1390 O   0  0  0  0  0  0  0  0  0  0  0  0
    0.4710   16.9980   -5.2420 C   0  0  0  0  0  0  0  0  0  0  0  0
   -2.5670   18.0630   -6.9930 O   0  0  0  0  0  0  0  0  0  0  0  0
   -2.2540   19.3380   -4.8310 O   0  0  0  0  0  0  0  0  0  0  0  0
   -0.3860   19.4580   -6.3430 O   0  0  0  0  0  0  0  0  0  0  0  0
   -0.1070   20.0530   -7.7820 P   0  0  2  0  0  0  0  0  0  0  0  0
   -1.0840   21.3380   -8.0170 O   0  0  0  0  0  0  0  0  0  0  0  0
    0.0820   18.9640   -8.8020 O   0  0  0  0  0  0  0  0  0  0  0  0
    1.2320   20.9060   -7.5640 O   0  0  0  0  0  0  0  0  0  0  0  0
    0.8120   15.7040   -4.4910 C   0  0  1  0  0  0  0  0  0  0  0  0
   -2.2720   20.9220   -8.5210 C   0  0  0  0  0  0  0  0  0  0  0  0
    0.1240   15.7480   -3.2330 O   0  0  0  0  0  0  0  0  0  0  0  0
    0.3980   14.4000   -5.1960 C   0  0  1  0  0  0  0  0  0  0  0  0
    1.5050   13.5710   -5.5240 O   0  0  0  0  0  0  0  0  0  0  0  0
   -0.5150   13.6710   -4.2190 C   0  0  1  0  0  0  0  0  0  0  0  0
   -0.3060   14.4180   -2.9110 C   0  0  2  0  0  0  0  0  0  0  0  0
   -3.4790   21.7700   -9.0360 C   0  0  1  0  0  0  0  0  0  0  0  0
   -1.8280   13.4130   -4.6830 O   0  0  0  0  0  0  0  0  0  0  0  0
   -4.6410   20.9770   -8.7490 O   0  0  0  0  0  0  0  0  0  0  0  0
   -4.0070   23.0190   -8.4020 C   0  0  2  0  0  0  0  0  0  0  0  0
   -1.3400   14.6030   -1.9340 N   0  0  0  0  0  0  0  0  0  0  0  0
   -3.3110   24.1780   -8.5730 O   0  0  0  0  0  0  0  0  0  0  0  0
   -1.1800   14.6200   -0.6020 C   0  0  0  0  0  0  0  0  0  0  0  0
   -4.2170   22.4560   -7.0190 C   0  0  2  0  0  0  0  0  0  0  0  0
   -5.1890   21.4190   -7.5100 C   0  0  2  0  0  0  0  0  0  0  0  0
   -2.6800   14.8020   -2.1940 C   0  0  0  0  0  0  0  0  0  0  0  0
   -4.9180   23.2620   -6.0870 O   0  0  0  0  0  0  0  0  0  0  0  0
   -5.3210   20.3290   -6.6430 O   0  0  0  0  0  0  0  0  0  0  0  0
   -2.4380   14.8420   -0.0830 C   0  0  0  0  0  0  0  0  0  0  0  0
   -0.0300   14.4610    0.0580 N   0  0  0  0  0  0  0  0  0  0  0  0
   -3.3750   14.9530   -1.0830 N   0  0  0  0  0  0  0  0  0  0  0  0
   -5.3340   24.3830   -6.5690 C   0  0  0  0  0  0  0  0  0  0  0  0
   -2.5340   14.9180    1.2990 C   0  0  0  0  0  0  0  0  0  0  0  0
   -0.2630   14.5370    1.3770 C   0  0  0  0  0  0  0  0  0  0  0  0
   -4.5020   25.4600   -5.9590 C   0  0  0  0  0  0  0  0  0  0  0  0
   -6.2450   24.4470   -7.3600 O   0  0  0  0  0  0  0  0  0  0  0  0
   -3.7170   15.1680    1.9540 N   0  0  0  0  0  0  0  0  0  0  0  0
   -1.4160   14.7460    2.0130 N   0  0  0  0  0  0  0  0  0  0  0  0
  1  2  1  0
  2  3  1  0
  1  4  2  0
  1  5  1  1
  1  6  1  0
  6  7  1  0
  7  8  1  0
  7  9  2  0
  7 10  1  1
 11  3  1  6
  8 12  1  0
 11 13  1  0
 11 14  1  0
 14 15  1  1
 14 16  1  0
 13 17  1  0
 16 17  1  0
 18 12  1  1
 16 19  1  6
 18 20  1  0
 18 21  1  0
 17 22  1  6
 21 23  1  1
 22 24  1  0
 21 25  1  0
 20 26  1  0
 25 26  1  0
 22 27  1  0
 25 28  1  1
 26 29  1  1
 24 30  2  0
 24 31  1  0
 27 32  2  0
 30 32  1  0
 28 33  1  0
 30 34  1  0
 31 35  2  0
 33 36  1  0
 33 37  2  0
 34 38  1  0
 34 39  2  0
 35 39  1  0
M  END
>  <%Rank>  (100) 
39.285714

>  <N_hits>  (100) 
2

>  <submitter_name>  (100) 
nan

>  <original SMILES>  (100) 
nan

>  <∆G_unbound>  (100) 
7.271863

>  <∆G_bound>  (100) 
-11.04524

>  <regarded>  (100) 
mArh-5cb5_F_1_F,mArh-mac-242_0_A

>  <ref_pdb>  (100) 
nan

>  <smiles>  (100) 
CC(=O)OC1C(O)OC(CO[P@@](=O)(O)O[P@](=O)(O)OCC2OC(n3cnc4c(N)ncnc43)C(O)C2O)C1O

>  <submitter_email>  (100) 
nan

>  <disregarded>  (100) 


>  <LE>  (100) 
-0.469669

>  <submitter_institution>  (100) 
nan

>  <ref_mols>  (100) 
mArh-5cb5_F_1_F,mArh-mac-242_0_A

>  <N_constrained_atoms>  (100) 
39.0

>  <ref_url>  (100) 
nan

>  <method>  (100) 
nan

>  <comRMSD>  (100) 
0.840373

>  <N_unconstrained_atoms>  (100) 
0.0

>  <∆∆G>  (100) 
-18.317103

>  <runtime>  (100) 
60.884439

>  <generation_date>  (100) 
nan

$$$$
mArh-x0689_0_A-mArh-5l9k_A_0_A
     RDKit          3D

 38 41  0  0  0  0  0  0  0  0999 V2000
   -3.6580   14.4050    1.3270 N   0  0  0  0  0  0  0  0  0  0  0  0
   -4.5300   15.5330    1.5880 C   0  0  0  0  0  0  0  0  0  0  0  0
   -2.3240   14.7040    0.8430 C   0  0  2  0  0  0  0  0  0  0  0  0
   -2.1720   15.0550   -0.6230 C   0  0  2  0  0  0  0  0  0  0  0  0
   -1.4140   13.7920    1.4480 N   0  0  0  0  0  0  0  0  0  0  0  0
   -0.7870   15.6430   -0.6590 C   0  0  0  0  0  0  0  0  0  0  0  0
   -0.0300   14.1340    1.3350 C   0  0  0  0  0  0  0  0  0  0  0  0
   -3.2650   16.0210   -0.8350 C   0  0  0  0  0  0  0  0  0  0  0  0
   -2.5170   14.2290   -1.7940 N   0  0  0  0  0  0  0  0  0  0  0  0
    0.2530   15.1620    0.3170 C   0  0  0  0  0  0  0  0  0  0  0  0
   -2.1600   14.7860   -3.1160 C   0  0  1  0  0  0  0  0  0  0  0  0
   -4.4810   15.2160   -1.0510 N   0  0  0  0  0  0  0  0  0  0  0  0
   -3.9400   14.0040   -1.6500 C   0  0  0  0  0  0  0  0  0  0  0  0
   -1.1330   15.8060   -3.0600 O   0  0  0  0  0  0  0  0  0  0  0  0
   -1.9530   14.0740   -4.3210 C   0  0  2  0  0  0  0  0  0  0  0  0
   -2.2330   12.6750   -4.2150 O   0  0  0  0  0  0  0  0  0  0  0  0
   -0.0950   15.5730   -4.0360 C   0  0  1  0  0  0  0  0  0  0  0  0
   -0.5100   14.3040   -4.7630 C   0  0  1  0  0  0  0  0  0  0  0  0
    0.2020   16.8340   -4.8940 C   0  0  0  0  0  0  0  0  0  0  0  0
    0.3090   13.1850   -4.4610 O   0  0  0  0  0  0  0  0  0  0  0  0
   -0.6800   16.9960   -6.0030 O   0  0  0  0  0  0  0  0  0  0  0  0
   -1.8000   18.1110   -5.8870 P   0  0  2  0  0  0  0  0  0  0  0  0
   -2.2990   18.1920   -4.5210 O   0  0  0  0  0  0  0  0  0  0  0  0
   -2.9000   17.6160   -6.9180 O   0  0  0  0  0  0  0  0  0  0  0  0
   -1.2970   19.5070   -6.4590 O   0  0  0  0  0  0  0  0  0  0  0  0
   -0.6670   19.7260   -7.9030 P   0  0  2  0  0  0  0  0  0  0  0  0
   -0.2350   18.5390   -8.6770 O   0  0  0  0  0  0  0  0  0  0  0  0
    0.4940   20.7870   -7.6670 O   0  0  0  0  0  0  0  0  0  0  0  0
   -1.7460   20.6110   -8.6740 O   0  0  0  0  0  0  0  0  0  0  0  0
   -2.2020   21.8220   -8.0950 C   0  0  0  0  0  0  0  0  0  0  0  0
   -3.5230   22.2130   -8.7630 C   0  0  2  0  0  0  0  0  0  0  0  0
   -4.0420   23.5750   -8.3590 C   0  0  1  0  0  0  0  0  0  0  0  0
   -4.5400   21.3280   -8.3290 O   0  0  0  0  0  0  0  0  0  0  0  0
   -5.0380   23.9860   -9.3120 O   0  0  0  0  0  0  0  0  0  0  0  0
   -5.1390   21.8640   -7.1620 C   0  0  1  0  0  0  0  0  0  0  0  0
   -4.6760   23.3080   -7.0050 C   0  0  2  0  0  0  0  0  0  0  0  0
   -6.5140   21.7900   -7.4050 O   0  0  0  0  0  0  0  0  0  0  0  0
   -5.7480   24.2090   -6.7250 O   0  0  0  0  0  0  0  0  0  0  0  0
  1  2  1  0
  3  1  1  6
  3  4  1  0
  3  5  1  0
  4  6  1  1
  5  7  1  0
  4  8  1  0
  4  9  1  0
  6 10  2  0
  7 10  1  0
 11  9  1  1
  8 12  1  0
  9 13  1  0
 12 13  1  0
 11 14  1  0
 11 15  1  0
 15 16  1  1
 14 17  1  0
 15 18  1  0
 17 18  1  0
 17 19  1  6
 18 20  1  1
 19 21  1  0
 21 22  1  0
 22 23  2  0
 22 24  1  6
 22 25  1  0
 25 26  1  0
 26 27  2  0
 26 28  1  1
 26 29  1  0
 29 30  1  0
 31 30  1  1
 31 32  1  0
 31 33  1  0
 32 34  1  6
 33 35  1  0
 32 36  1  0
 35 36  1  0
 35 37  1  6
 36 38  1  6
M  END
>  <%Rank>  (101) 
39.68254

>  <N_hits>  (101) 
2

>  <submitter_name>  (101) 
nan

>  <original SMILES>  (101) 
nan

>  <∆G_unbound>  (101) 
4.687522

>  <∆G_bound>  (101) 
-12.751593

>  <regarded>  (101) 
mArh-x0689_0_A,mArh-5l9k_A_0_A

>  <ref_pdb>  (101) 
nan

>  <smiles>  (101) 
CNC1NCC=CC12CNCN2C1OC(CO[P@](=O)(O)O[P@](=O)(O)OCC2OC(O)C(O)C2O)C(O)C1O

>  <submitter_email>  (101) 
nan

>  <disregarded>  (101) 


>  <LE>  (101) 
-0.458924

>  <submitter_institution>  (101) 
nan

>  <ref_mols>  (101) 
mArh-x0689_0_A,mArh-5l9k_A_0_A

>  <N_constrained_atoms>  (101) 
38.0

>  <ref_url>  (101) 
nan

>  <method>  (101) 
nan

>  <comRMSD>  (101) 
0.826367

>  <N_unconstrained_atoms>  (101) 
0.0

>  <∆∆G>  (101) 
-17.439114

>  <runtime>  (101) 
32.354263

>  <generation_date>  (101) 
nan

$$$$
mArh-x0855_0_A-mArh-5lw0_A_0_A
     RDKit          3D

 44 48  0  0  0  0  0  0  0  0999 V2000
    1.9610   12.8400   -2.8040 O   0  0  0  0  0  0  0  0  0  0  0  0
    1.1380   12.0300   -3.4920 C   0  0  0  0  0  0  0  0  0  0  0  0
    0.8110   12.5320   -4.8850 C   0  0  1  0  0  0  0  0  0  0  0  0
    0.7260   11.0100   -2.9660 O   0  0  0  0  0  0  0  0  0  0  0  0
   -0.1310   11.5900   -5.4940 N   0  0  0  0  0  0  0  0  0  0  0  0
    0.0800   13.8410   -4.8230 C   0  0  2  0  0  0  0  0  0  0  0  0
    0.0410   10.6460   -6.4720 C   0  0  0  0  0  0  0  0  0  0  0  0
   -1.4080   11.6660   -5.0000 N   0  0  0  0  0  0  0  0  0  0  0  0
    0.7840   15.0560   -4.2180 C   0  0  1  0  0  0  0  0  0  0  0  0
   -1.1500   13.6330   -3.9380 C   0  0  0  0  0  0  0  0  0  0  0  0
    0.4930   16.3580   -5.0000 C   0  0  0  0  0  0  0  0  0  0  0  0
   -1.3260    9.9970   -6.6170 C   0  0  0  0  0  0  0  0  0  0  0  0
   -2.1570   10.7540   -5.6170 C   0  0  0  0  0  0  0  0  0  0  0  0
    0.2240   15.1650   -2.8960 O   0  0  0  0  0  0  0  0  0  0  0  0
   -1.1480   14.8800   -3.1460 C   0  0  2  0  0  0  0  0  0  0  0  0
   -1.8930    8.6190   -7.7250 Br  0  0  0  0  0  0  0  0  0  0  0  0
   -0.8100   16.3710   -5.3830 O   0  0  0  0  0  0  0  0  0  0  0  0
   -2.0090   14.9640   -2.0110 N   0  0  0  0  0  0  0  0  0  0  0  0
   -1.5200   17.6940   -5.9150 P   0  0  1  0  0  0  0  0  0  0  0  0
   -1.7170   14.8240   -0.6810 C   0  0  0  0  0  0  0  0  0  0  0  0
   -3.3530   15.2530   -2.1620 C   0  0  0  0  0  0  0  0  0  0  0  0
   -2.6590   17.4550   -6.8460 O   0  0  0  0  0  0  0  0  0  0  0  0
   -1.9380   18.4970   -4.6130 O   0  0  0  0  0  0  0  0  0  0  0  0
   -0.3540   18.6330   -6.4340 O   0  0  0  0  0  0  0  0  0  0  0  0
   -3.0650   15.1240   -0.1030 C   0  0  0  0  0  0  0  0  0  0  0  0
   -0.5720   14.5320   -0.0410 N   0  0  0  0  0  0  0  0  0  0  0  0
   -4.0190   15.3570   -1.0410 N   0  0  0  0  0  0  0  0  0  0  0  0
   -0.4270   19.3320   -7.8450 P   0  0  2  0  0  0  0  0  0  0  0  0
   -2.9800   15.1030    1.3560 C   0  0  0  0  0  0  0  0  0  0  0  0
   -0.6680   14.5120    1.3370 C   0  0  0  0  0  0  0  0  0  0  0  0
   -0.0290   18.4390   -8.9450 O   0  0  0  0  0  0  0  0  0  0  0  0
    0.4890   20.6250   -7.7340 O   0  0  0  0  0  0  0  0  0  0  0  0
   -1.9100   19.9120   -7.8890 O   0  0  0  0  0  0  0  0  0  0  0  0
   -4.0940   15.4270    2.0810 N   0  0  0  0  0  0  0  0  0  0  0  0
   -1.8110   14.7850    1.9740 N   0  0  0  0  0  0  0  0  0  0  0  0
   -2.1960   21.3050   -8.0270 C   0  0  0  0  0  0  0  0  0  0  0  0
   -3.5400   21.4660   -8.7310 C   0  0  2  0  0  0  0  0  0  0  0  0
   -4.2280   22.8140   -8.7310 C   0  0  1  0  0  0  0  0  0  0  0  0
   -4.4840   20.5720   -8.1280 O   0  0  0  0  0  0  0  0  0  0  0  0
   -4.9720   23.0160   -9.9400 O   0  0  0  0  0  0  0  0  0  0  0  0
   -5.0930   21.2860   -7.0790 C   0  0  1  0  0  0  0  0  0  0  0  0
   -5.2010   22.7260   -7.5670 C   0  0  2  0  0  0  0  0  0  0  0  0
   -6.3790   20.7210   -6.9160 O   0  0  0  0  0  0  0  0  0  0  0  0
   -6.5000   22.9610   -8.1040 O   0  0  0  0  0  0  0  0  0  0  0  0
  1  2  1  0
  3  2  1  1
  2  4  2  0
  3  5  1  0
  3  6  1  0
  5  7  1  0
  5  8  1  0
  6  9  1  0
  6 10  1  1
  9 11  1  6
  7 12  2  0
  8 13  2  0
 12 13  1  0
  9 14  1  0
 10 15  1  0
 14 15  1  0
 12 16  1  0
 11 17  1  0
 15 18  1  1
 17 19  1  0
 18 20  1  0
 18 21  1  0
 19 22  2  0
 19 23  1  1
 19 24  1  0
 20 25  2  0
 20 26  1  0
 21 27  2  0
 25 27  1  0
 24 28  1  0
 25 29  1  0
 26 30  2  0
 28 31  2  0
 28 32  1  1
 28 33  1  0
 29 34  1  0
 29 35  2  0
 30 35  1  0
 33 36  1  0
 37 36  1  1
 37 38  1  0
 37 39  1  0
 38 40  1  6
 39 41  1  0
 38 42  1  0
 41 42  1  0
 41 43  1  6
 42 44  1  6
M  END
>  <%Rank>  (102) 
40.079365

>  <N_hits>  (102) 
2

>  <submitter_name>  (102) 
nan

>  <original SMILES>  (102) 
nan

>  <∆G_unbound>  (102) 
4.193194

>  <∆G_bound>  (102) 
-13.359921

>  <regarded>  (102) 
mArh-x0855_0_A,mArh-5lw0_A_0_A

>  <ref_pdb>  (102) 
nan

>  <smiles>  (102) 
Nc1ncnc2c1ncn2C1CC(C(C(=O)O)n2cc(Br)cn2)C(CO[P@@](=O)(O)O[P@](=O)(O)OCC2OC(O)C(O)C2O)O1

>  <submitter_email>  (102) 
nan

>  <disregarded>  (102) 


>  <LE>  (102) 
-0.398934

>  <submitter_institution>  (102) 
nan

>  <ref_mols>  (102) 
mArh-x0855_0_A,mArh-5lw0_A_0_A

>  <N_constrained_atoms>  (102) 
44.0

>  <ref_url>  (102) 
nan

>  <method>  (102) 
nan

>  <comRMSD>  (102) 
0.852648

>  <N_unconstrained_atoms>  (102) 
0.0

>  <∆∆G>  (102) 
-17.553116

>  <runtime>  (102) 
52.389516

>  <generation_date>  (102) 
nan

$$$$
mArh-2fav_B_0_B-mArh-x0685_1_A
     RDKit          3D

 47 51  0  0  0  0  0  0  0  0999 V2000
   -0.9980   18.1520   -5.5750 P   0  0  0  0  0  0  0  0  0  0  0  0
   -0.5840   16.8120   -4.7300 O   0  0  0  0  0  0  0  0  0  0  0  0
    0.7680   16.8160   -4.5690 C   0  0  0  0  0  0  0  0  0  0  0  0
   -2.1550   19.1800   -4.8690 O   0  0  0  0  0  0  0  0  0  0  0  0
   -2.1270   17.5450   -6.4200 O   0  0  0  0  0  0  0  0  0  0  0  0
   -0.0630   18.6030   -6.7220 O   0  0  0  0  0  0  0  0  0  0  0  0
   -0.1510   19.8500   -7.6580 P   0  0  0  0  0  0  0  0  0  0  0  0
    1.1710   20.9400   -7.6690 O   0  0  0  0  0  0  0  0  0  0  0  0
    0.2740   19.0190   -8.7790 O   0  0  0  0  0  0  0  0  0  0  0  0
   -1.5280   20.5030   -8.2770 O   0  0  0  0  0  0  0  0  0  0  0  0
    1.3280   15.5590   -3.8930 C   0  0  1  0  0  0  0  0  0  0  0  0
   -1.5690   21.8680   -7.9430 C   0  0  0  0  0  0  0  0  0  0  0  0
    0.5150   15.2430   -2.8220 O   0  0  0  0  0  0  0  0  0  0  0  0
    1.1750   14.3630   -4.8140 C   0  0  1  0  0  0  0  0  0  0  0  0
    2.0760   13.3880   -4.5460 O   0  0  0  0  0  0  0  0  0  0  0  0
   -0.2860   13.8240   -4.4010 C   0  0  2  0  0  0  0  0  0  0  0  0
   -0.7010   14.6960   -3.4080 C   0  0  1  0  0  0  0  0  0  0  0  0
   -2.9930   22.2070   -7.6980 C   0  0  1  0  0  0  0  0  0  0  0  0
   -0.1070   12.3890   -4.3290 N   0  0  0  0  0  0  0  0  0  0  0  0
   -3.5050   23.5560   -7.7980 C   0  0  1  0  0  0  0  0  0  0  0  0
   -3.9580   21.3340   -7.7240 O   0  0  0  0  0  0  0  0  0  0  0  0
   -1.6630   14.4170   -2.4250 N   0  0  0  0  0  0  0  0  0  0  0  0
   -4.1900   23.8960   -8.9360 O   0  0  0  0  0  0  0  0  0  0  0  0
   -1.4660   11.7800   -4.3810 C   0  0  0  0  0  0  0  0  0  0  0  0
    0.6250   11.8970   -2.7820 S   0  0  0  0  0  0  0  0  0  0  0  0
   -4.9180   21.9340   -6.8560 C   0  0  0  0  0  0  0  0  0  0  0  0
   -4.4230   23.3620   -6.5820 C   0  0  2  0  0  0  0  0  0  0  0  0
   -1.5710   14.1890   -1.0480 C   0  0  2  0  0  0  0  0  0  0  0  0
   -3.0490   14.4280   -2.7550 C   0  0  0  0  0  0  0  0  0  0  0  0
   -5.3960   24.3050   -6.5120 O   0  0  0  0  0  0  0  0  0  0  0  0
   -1.4570   10.4300   -4.9070 N   0  0  0  0  0  0  0  0  0  0  0  0
    2.1460   12.1710   -3.0350 O   0  0  0  0  0  0  0  0  0  0  0  0
    0.4830   10.4660   -2.4860 O   0  0  0  0  0  0  0  0  0  0  0  0
    0.2060   12.7600   -1.4540 O   0  0  0  0  0  0  0  0  0  0  0  0
   -2.9070   14.9270   -0.6860 C   0  0  1  0  0  0  0  0  0  0  0  0
   -0.5790   14.8140   -0.2160 N   0  0  0  0  0  0  0  0  0  0  0  0
   -3.7670   14.1340   -1.4850 N   0  0  0  0  0  0  0  0  0  0  0  0
   -3.0900   15.0040    0.7630 C   0  0  1  0  0  0  0  0  0  0  0  0
   -0.8010   14.2960    1.1150 C   0  0  0  0  0  0  0  0  0  0  0  0
   -0.8040   10.3290   -6.2130 C   0  0  0  0  0  0  0  0  0  0  0  0
   -4.4480   14.7880    1.1860 N   0  0  0  0  0  0  0  0  0  0  0  0
   -2.1670   14.2090    1.5060 N   0  0  0  0  0  0  0  0  0  0  0  0
   -0.5980    8.8180   -6.4620 C   0  0  0  0  0  0  0  0  0  0  0  0
   -1.5940   10.8990   -7.3180 C   0  0  0  0  0  0  0  0  0  0  0  0
    0.1110    8.6290   -7.8000 C   0  0  0  0  0  0  0  0  0  0  0  0
   -1.0390   10.6720   -8.7090 C   0  0  0  0  0  0  0  0  0  0  0  0
   -0.6140    9.2550   -8.9340 C   0  0  0  0  0  0  0  0  0  0  0  0
  1  2  1  0
  2  3  1  0
  1  4  1  0
  1  5  1  0
  1  6  1  0
  6  7  1  0
  7  8  1  0
  7  9  1  0
  7 10  1  0
 11  3  1  6
 10 12  1  0
 11 13  1  0
 11 14  1  0
 14 15  1  1
 14 16  1  0
 13 17  1  0
 16 17  1  0
 18 12  1  6
 16 19  1  1
 18 20  1  0
 18 21  1  0
 17 22  1  1
 20 23  1  6
 19 24  1  0
 19 25  1  0
 21 26  1  0
 20 27  1  0
 26 27  1  0
 22 28  1  0
 22 29  1  0
 27 30  1  6
 24 31  1  0
 25 32  2  0
 25 33  2  0
 25 34  1  0
 28 35  1  0
 28 36  1  1
 29 37  1  0
 35 37  1  6
 35 38  1  0
 36 39  1  0
 31 40  1  0
 38 41  1  6
 38 42  1  0
 39 42  1  0
 40 43  1  0
 40 44  1  0
 43 45  1  0
 44 46  1  0
 45 47  1  0
 46 47  1  0
M  CHG  2   4  -1   8  -1
M  END
>  <%Rank>  (103) 
40.47619

>  <N_hits>  (103) 
2

>  <submitter_name>  (103) 
nan

>  <original SMILES>  (103) 
nan

>  <∆G_unbound>  (103) 
5.695262

>  <∆G_bound>  (103) 
-11.099238

>  <regarded>  (103) 
mArh-2fav_B_0_B,mArh-x0685_1_A

>  <ref_pdb>  (103) 
nan

>  <smiles>  (103) 
NC1NCNC2C1NCN2C1OC(CO[PH]([O-])(O)O[PH]([O-])(O)OCC2OCC(O)C2O)C(O)C1N(CNC1CCCCC1)S(=O)(=O)O

>  <submitter_email>  (103) 
nan

>  <disregarded>  (103) 


>  <LE>  (103) 
-0.35733

>  <submitter_institution>  (103) 
nan

>  <ref_mols>  (103) 
mArh-2fav_B_0_B,mArh-x0685_1_A

>  <N_constrained_atoms>  (103) 
47.0

>  <ref_url>  (103) 
nan

>  <method>  (103) 
nan

>  <comRMSD>  (103) 
0.858834

>  <N_unconstrained_atoms>  (103) 
0.0

>  <∆∆G>  (103) 
-16.7945

>  <runtime>  (103) 
39.236886

>  <generation_date>  (103) 
nan

$$$$
mArh-3ew5_B_0_B-mArh-x0681_0_A
     RDKit          3D

 26 27  0  0  0  0  0  0  0  0999 V2000
   -0.5340   19.6380   -7.7300 P   0  0  2  0  0  0  0  0  0  0  0  0
   -1.7180   20.6340   -8.1470 O   0  0  0  0  0  0  0  0  0  0  0  0
   -2.0770   21.6640   -7.2390 C   0  0  0  0  0  0  0  0  0  0  0  0
   -0.0520   18.7080   -8.7870 O   0  0  0  0  0  0  0  0  0  0  0  0
   -1.0110   18.9490   -6.3470 O   0  0  0  0  0  0  0  0  0  0  0  0
    0.7080   20.5910   -7.4010 O   0  0  0  0  0  0  0  0  0  0  0  0
   -0.8540   17.5800   -5.9400 C   0  0  0  0  0  0  0  0  0  0  0  0
   -3.5420   22.1160   -7.3400 C   0  0  2  0  0  0  0  0  0  0  0  0
   -2.2280   16.8490   -5.9430 C   0  0  0  0  0  0  0  0  0  0  0  0
   -4.3430   21.5100   -6.1750 C   0  0  0  0  0  0  0  0  0  0  0  0
   -4.1240   21.7420   -8.5980 O   0  0  0  0  0  0  0  0  0  0  0  0
   -2.2500   15.4280   -5.2920 C   0  0  0  0  0  0  0  0  0  0  0  0
   -5.7640   21.6110   -6.3310 O   0  0  0  0  0  0  0  0  0  0  0  0
   -2.0980   15.7150   -3.8370 C   0  0  0  0  0  0  0  0  0  0  0  0
   -2.3550   14.8940   -2.6470 N   0  0  0  0  0  0  0  0  0  0  0  0
   -3.4970   15.0010   -2.0500 C   0  0  0  0  0  0  0  0  0  0  0  0
   -4.5570   15.7270   -2.4810 N   0  0  0  0  0  0  0  0  0  0  0  0
   -3.7490   14.3490   -0.6940 C   0  0  2  0  0  0  0  0  0  0  0  0
   -4.9820   13.5010   -0.6650 C   0  0  0  0  0  0  0  0  0  0  0  0
   -3.8400   15.5120    0.3040 C   0  0  0  0  0  0  0  0  0  0  0  0
   -5.8910   13.5790    0.3450 N   0  0  0  0  0  0  0  0  0  0  0  0
   -4.4050   15.0830    1.6170 C   0  0  0  0  0  0  0  0  0  0  0  0
   -5.3730   12.6080   -1.5350 N   0  0  0  0  0  0  0  0  0  0  0  0
   -5.8020   14.4650    1.4530 C   0  0  0  0  0  0  0  0  0  0  0  0
   -6.8860   12.6840    0.1210 C   0  0  0  0  0  0  0  0  0  0  0  0
   -6.5460   12.0860   -1.0580 C   0  0  0  0  0  0  0  0  0  0  0  0
  1  2  1  0
  2  3  1  0
  1  4  2  0
  1  5  1  0
  1  6  1  1
  5  7  1  0
  3  8  1  0
  7  9  1  0
  8 10  1  0
  8 11  1  6
  9 12  1  0
 10 13  1  0
 12 14  1  0
 14 15  1  0
 15 16  2  3
 16 17  1  0
 18 16  1  6
 18 19  1  0
 18 20  1  0
 19 21  1  0
 20 22  1  0
 19 23  2  0
 21 24  1  0
 22 24  1  0
 21 25  1  0
 23 26  1  0
 25 26  2  0
M  END
>  <%Rank>  (104) 
40.873016

>  <N_hits>  (104) 
2

>  <submitter_name>  (104) 
nan

>  <original SMILES>  (104) 
nan

>  <∆G_unbound>  (104) 
2.583337

>  <∆G_bound>  (104) 
-12.229219

>  <regarded>  (104) 
mArh-3ew5_B_0_B,mArh-x0681_0_A

>  <ref_pdb>  (104) 
nan

>  <smiles>  (104) 
NC(=NCCCCOP(=O)(O)OC[C@@H](O)CO)C1CCCn2ccnc21

>  <submitter_email>  (104) 
nan

>  <disregarded>  (104) 


>  <LE>  (104) 
-0.569714

>  <submitter_institution>  (104) 
nan

>  <ref_mols>  (104) 
mArh-3ew5_B_0_B,mArh-x0681_0_A

>  <N_constrained_atoms>  (104) 
22.0

>  <ref_url>  (104) 
nan

>  <method>  (104) 
nan

>  <comRMSD>  (104) 
0.610958

>  <N_unconstrained_atoms>  (104) 
4.0

>  <∆∆G>  (104) 
-14.812555

>  <runtime>  (104) 
32.15751

>  <generation_date>  (104) 
nan

$$$$
mArh-x1012_0_A-mArh-x0895_0_A
     RDKit          3D

 21 22  0  0  0  0  0  0  0  0999 V2000
   -0.7850   17.9810   -5.0210 N   0  0  0  0  0  0  0  0  0  0  0  0
   -1.4170   16.8000   -4.7840 C   0  0  0  0  0  0  0  0  0  0  0  0
   -2.6500   16.8320   -4.4470 N   0  0  0  0  0  0  0  0  0  0  0  0
   -0.6010   15.7150   -4.9400 N   0  0  0  0  0  0  0  0  0  0  0  0
   -3.3340   15.5380   -4.1820 C   0  0  0  0  0  0  0  0  0  0  0  0
   -1.1650   14.3880   -5.1870 C   0  0  0  0  0  0  0  0  0  0  0  0
    0.7940   15.7490   -4.4950 C   0  0  0  0  0  0  0  0  0  0  0  0
   -3.0640   14.9730   -2.7700 C   0  0  0  0  0  0  0  0  0  0  0  0
   -1.0450   13.4920   -3.9730 C   0  0  0  0  0  0  0  0  0  0  0  0
    1.0520   14.7430   -3.3590 C   0  0  0  0  0  0  0  0  0  0  0  0
   -4.1750   15.2170   -1.8290 N   0  0  0  0  0  0  0  0  0  0  0  0
    0.4220   13.3520   -3.5900 C   0  0  0  0  0  0  0  0  0  0  0  0
    0.5040   12.4500   -2.3830 C   0  0  0  0  0  0  0  0  0  0  0  0
   -3.9290   15.0750   -0.5840 C   0  0  0  0  0  0  0  0  0  0  0  0
    0.4230   11.1470   -2.7140 O   0  0  0  0  0  0  0  0  0  0  0  0
    0.6230   12.7740   -1.2130 O   0  0  0  0  0  0  0  0  0  0  0  0
   -4.6940   15.2280    0.5270 N   0  0  0  0  0  0  0  0  0  0  0  0
   -2.6910   14.7040   -0.1780 N   0  0  0  0  0  0  0  0  0  0  0  0
   -3.7990   15.7210    1.5500 C   0  0  0  0  0  0  0  0  0  0  0  0
   -2.5440   14.9410    1.1640 C   0  0  0  0  0  0  0  0  0  0  0  0
   -1.6060   14.6000    1.8730 O   0  0  0  0  0  0  0  0  0  0  0  0
  1  2  1  0
  2  3  2  3
  2  4  1  0
  3  5  1  0
  4  6  1  0
  4  7  1  0
  5  8  1  0
  6  9  1  0
  7 10  1  0
  8 11  1  0
  9 12  1  0
 10 12  1  0
 12 13  1  0
 11 14  2  3
 13 15  1  0
 13 16  2  0
 14 17  1  0
 14 18  1  0
 17 19  1  0
 18 20  1  0
 19 20  1  0
 20 21  2  0
M  END
>  <%Rank>  (105) 
41.269841

>  <N_hits>  (105) 
2

>  <submitter_name>  (105) 
nan

>  <original SMILES>  (105) 
nan

>  <∆G_unbound>  (105) 
1.118545

>  <∆G_bound>  (105) 
-4.202214

>  <regarded>  (105) 
mArh-x1012_0_A,mArh-x0895_0_A

>  <ref_pdb>  (105) 
nan

>  <smiles>  (105) 
NC(=NCCN=C1NCC(=O)N1)N1CCC(C(=O)O)CC1

>  <submitter_email>  (105) 
nan

>  <disregarded>  (105) 


>  <LE>  (105) 
-0.253369

>  <submitter_institution>  (105) 
nan

>  <ref_mols>  (105) 
mArh-x1012_0_A,mArh-x0895_0_A

>  <N_constrained_atoms>  (105) 
19.0

>  <ref_url>  (105) 
nan

>  <method>  (105) 
nan

>  <comRMSD>  (105) 
0.446685

>  <N_unconstrained_atoms>  (105) 
2.0

>  <∆∆G>  (105) 
-5.320759

>  <runtime>  (105) 
36.009388

>  <generation_date>  (105) 
nan

$$$$
mArh-5cms_K_10_K-mArh-x0918_1_B
     RDKit          3D

 45 49  0  0  0  0  0  0  0  0999 V2000
   -1.6040   18.3670   -5.9810 P   0  0  1  0  0  0  0  0  0  0  0  0
   -0.8930   17.5100   -4.8600 O   0  0  0  0  0  0  0  0  0  0  0  0
    0.2250   16.7220   -5.2110 C   0  0  0  0  0  0  0  0  0  0  0  0
   -2.4590   17.5840   -6.9140 O   0  0  0  0  0  0  0  0  0  0  0  0
   -2.4230   19.4200   -5.1220 O   0  0  0  0  0  0  0  0  0  0  0  0
   -0.3890   19.1680   -6.5220 O   0  0  0  0  0  0  0  0  0  0  0  0
   -0.1770   19.8230   -7.8970 P   0  0  1  0  0  0  0  0  0  0  0  0
    0.7970   20.9410   -7.9160 O   0  0  0  0  0  0  0  0  0  0  0  0
    0.2370   18.5920   -8.8310 O   0  0  0  0  0  0  0  0  0  0  0  0
   -1.6050   20.1410   -8.5140 O   0  0  0  0  0  0  0  0  0  0  0  0
   -0.2040   15.3990   -4.6500 C   0  0  2  0  0  0  0  0  0  0  0  0
   -2.3970   21.2540   -8.1400 C   0  0  0  0  0  0  0  0  0  0  0  0
    0.1000   15.3720   -3.2770 O   0  0  0  0  0  0  0  0  0  0  0  0
    0.2940   14.0670   -5.1590 C   0  0  1  0  0  0  0  0  0  0  0  0
    1.6810   13.8070   -4.9180 O   0  0  0  0  0  0  0  0  0  0  0  0
   -0.5000   13.2390   -4.1590 C   0  0  1  0  0  0  0  0  0  0  0  0
   -0.4780   14.1350   -2.8790 C   0  0  2  0  0  0  0  0  0  0  0  0
   -2.6030   22.1220   -9.3630 C   0  0  2  0  0  0  0  0  0  0  0  0
   -1.7460   12.8320   -4.6840 O   0  0  0  0  0  0  0  0  0  0  0  0
   -3.1210   23.5060   -9.1110 C   0  0  1  0  0  0  0  0  0  0  0  0
   -3.4470   21.5570  -10.3790 O   0  0  0  0  0  0  0  0  0  0  0  0
   -1.6510   14.4830   -2.1000 N   0  0  0  0  0  0  0  0  0  0  0  0
   -1.9370   24.2570   -8.8850 O   0  0  0  0  0  0  0  0  0  0  0  0
   -4.1580   22.5830  -11.0940 C   0  0  2  0  0  0  0  0  0  0  0  0
   -3.9910   23.9150  -10.3510 C   0  0  2  0  0  0  0  0  0  0  0  0
   -1.5820   14.5720   -0.7470 C   0  0  0  0  0  0  0  0  0  0  0  0
   -2.9460   14.7750   -2.4580 C   0  0  0  0  0  0  0  0  0  0  0  0
   -5.5350   22.2610  -11.1310 O   0  0  0  0  0  0  0  0  0  0  0  0
   -3.4350   24.9540  -11.2050 O   0  0  0  0  0  0  0  0  0  0  0  0
   -2.8510   14.9130   -0.3210 C   0  0  0  0  0  0  0  0  0  0  0  0
   -0.4830   14.3620   -0.0120 N   0  0  0  0  0  0  0  0  0  0  0  0
   -3.7060   15.0450   -1.4040 N   0  0  0  0  0  0  0  0  0  0  0  0
   -4.3960   25.6670  -12.0020 C   0  0  0  0  0  0  0  0  0  0  0  0
   -3.0150   15.0540    1.0640 C   0  0  0  0  0  0  0  0  0  0  0  0
   -0.7520   14.5110    1.2880 C   0  0  0  0  0  0  0  0  0  0  0  0
   -4.2140   15.4070    1.6710 N   0  0  0  0  0  0  0  0  0  0  0  0
   -3.7430   26.8190  -12.8110 C   0  0  0  0  0  0  0  0  0  0  0  0
   -1.9300   14.8300    1.8590 N   0  0  0  0  0  0  0  0  0  0  0  0
   -4.7030   27.9880  -12.9810 C   0  0  0  0  0  0  0  0  0  0  0  0
   -4.5570   29.0250  -13.9210 C   0  0  0  0  0  0  0  0  0  0  0  0
   -5.8280   28.0360  -12.1550 C   0  0  0  0  0  0  0  0  0  0  0  0
   -3.4720   29.1210  -14.8070 N   0  0  0  0  0  0  0  0  0  0  0  0
   -5.5430   30.0060  -13.9830 C   0  0  0  0  0  0  0  0  0  0  0  0
   -6.7860   28.9830  -12.2020 N   0  0  0  0  0  0  0  0  0  0  0  0
   -6.6220   29.9430  -13.1190 C   0  0  0  0  0  0  0  0  0  0  0  0
  1  2  1  0
  2  3  1  0
  1  4  2  0
  1  5  1  1
  1  6  1  0
  6  7  1  0
  7  8  2  0
  7  9  1  6
  7 10  1  0
 11  3  1  6
 10 12  1  0
 11 13  1  0
 11 14  1  0
 14 15  1  1
 14 16  1  0
 13 17  1  0
 16 17  1  0
 18 12  1  1
 16 19  1  6
 18 20  1  0
 18 21  1  0
 17 22  1  6
 20 23  1  6
 21 24  1  0
 20 25  1  0
 24 25  1  0
 22 26  1  0
 22 27  1  0
 24 28  1  1
 25 29  1  6
 26 30  2  0
 26 31  1  0
 27 32  2  0
 30 32  1  0
 29 33  1  0
 30 34  1  0
 31 35  2  0
 34 36  1  0
 33 37  1  0
 34 38  2  0
 35 38  1  0
 37 39  1  0
 39 40  2  0
 39 41  1  0
 40 42  1  0
 40 43  1  0
 41 44  2  0
 43 45  2  0
 44 45  1  0
M  END
>  <%Rank>  (106) 
41.666667

>  <N_hits>  (106) 
2

>  <submitter_name>  (106) 
nan

>  <original SMILES>  (106) 
nan

>  <∆G_unbound>  (106) 
3.05919

>  <∆G_bound>  (106) 
-13.705859

>  <regarded>  (106) 
mArh-5cms_K_10_K,mArh-x0918_1_B

>  <ref_pdb>  (106) 
nan

>  <smiles>  (106) 
Nc1ccncc1CCOC1C(O)OC(CO[P@](=O)(O)O[P@](=O)(O)OCC2OC(n3cnc4c(N)ncnc43)C(O)C2O)C1O

>  <submitter_email>  (106) 
nan

>  <disregarded>  (106) 


>  <LE>  (106) 
-0.372557

>  <submitter_institution>  (106) 
nan

>  <ref_mols>  (106) 
mArh-5cms_K_10_K,mArh-x0918_1_B

>  <N_constrained_atoms>  (106) 
43.0

>  <ref_url>  (106) 
nan

>  <method>  (106) 
nan

>  <comRMSD>  (106) 
0.833861

>  <N_unconstrained_atoms>  (106) 
2.0

>  <∆∆G>  (106) 
-16.765048

>  <runtime>  (106) 
61.877266

>  <generation_date>  (106) 
nan

$$$$
mArh-3ew5_A_0_A-mArh-5cms_D_3_D
     RDKit          3D

 33 35  0  0  0  0  0  0  0  0999 V2000
   -0.6610   20.2870   -7.6350 P   0  0  2  0  0  0  0  0  0  0  0  0
   -2.1330   20.7050   -8.0520 O   0  0  0  0  0  0  0  0  0  0  0  0
   -2.4980   22.0690   -8.1750 C   0  0  0  0  0  0  0  0  0  0  0  0
    0.1590   21.6170   -7.5230 O   0  0  0  0  0  0  0  0  0  0  0  0
    0.1690   19.5020   -8.7280 O   0  0  0  0  0  0  0  0  0  0  0  0
   -0.6000   19.5730   -6.3270 O   0  0  0  0  0  0  0  0  0  0  0  0
   -1.2800   18.2420   -5.9820 P   0  0  0  0  0  0  0  0  0  0  0  0
   -0.2090   18.3350   -8.9800 O   0  0  0  0  0  0  0  0  0  0  0  0
   -3.5210   22.3080   -7.3530 C   0  0  2  0  0  0  0  0  0  0  0  0
    0.1280   17.4330   -6.1000 O   0  0  0  0  0  0  0  0  0  0  0  0
   -2.3700   18.2940   -7.2150 O   0  0  0  0  0  0  0  0  0  0  0  0
   -1.7670   18.9160   -4.5750 O   0  0  0  0  0  0  0  0  0  0  0  0
   -4.8370   22.2830   -8.0820 C   0  0  0  0  0  0  0  0  0  0  0  0
   -3.3820   23.4830   -6.7290 O   0  0  0  0  0  0  0  0  0  0  0  0
    0.6730   16.7720   -5.0390 C   0  0  0  0  0  0  0  0  0  0  0  0
   -5.9070   21.9890   -7.2160 O   0  0  0  0  0  0  0  0  0  0  0  0
   -0.1530   15.6640   -4.5470 C   0  0  2  0  0  0  0  0  0  0  0  0
   -0.3530   15.4110   -3.2240 O   0  0  0  0  0  0  0  0  0  0  0  0
    0.0990   14.2710   -5.1240 C   0  0  1  0  0  0  0  0  0  0  0  0
    1.3120   13.6900   -4.7780 O   0  0  0  0  0  0  0  0  0  0  0  0
   -1.4380   14.6160   -3.3780 C   0  0  1  0  0  0  0  0  0  0  0  0
   -1.0730   13.5750   -4.4330 C   0  0  2  0  0  0  0  0  0  0  0  0
   -0.6190   12.3480   -3.9950 O   0  0  0  0  0  0  0  0  0  0  0  0
   -2.2070   14.2660   -2.2140 N   0  0  0  0  0  0  0  0  0  0  0  0
   -1.7790   14.2910   -0.8490 C   0  0  2  0  0  0  0  0  0  0  0  0
   -3.4280   15.0490   -2.3560 C   0  0  0  0  0  0  0  0  0  0  0  0
   -3.0950   14.6800   -0.1370 C   0  0  2  0  0  0  0  0  0  0  0  0
   -0.6240   15.0520   -0.5260 N   0  0  0  0  0  0  0  0  0  0  0  0
   -3.7950   15.4980   -1.0640 N   0  0  0  0  0  0  0  0  0  0  0  0
   -2.7740   15.4650    1.1190 C   0  0  1  0  0  0  0  0  0  0  0  0
   -0.4630   15.2910    0.8630 C   0  0  0  0  0  0  0  0  0  0  0  0
   -3.8610   15.2610    2.0150 N   0  0  0  0  0  0  0  0  0  0  0  0
   -1.5650   14.8690    1.6590 N   0  0  0  0  0  0  0  0  0  0  0  0
  1  2  1  6
  2  3  1  0
  1  4  2  0
  1  5  1  0
  1  6  1  0
  6  7  1  0
  5  8  1  0
  3  9  1  0
  7 10  1  0
  7 11  1  0
  7 12  1  0
  9 13  1  0
  9 14  1  6
 10 15  1  0
 13 16  1  0
 17 15  1  1
 17 18  1  0
 17 19  1  0
 19 20  1  1
 18 21  1  0
 19 22  1  0
 21 22  1  0
 22 23  1  1
 21 24  1  1
 24 25  1  0
 24 26  1  0
 25 27  1  0
 25 28  1  6
 26 29  1  0
 27 29  1  6
 27 30  1  0
 28 31  1  0
 30 32  1  1
 30 33  1  0
 31 33  1  0
M  CHG  2   8  -1  11  -1
M  END
>  <%Rank>  (107) 
42.063492

>  <N_hits>  (107) 
2

>  <submitter_name>  (107) 
nan

>  <original SMILES>  (107) 
nan

>  <∆G_unbound>  (107) 
6.401198

>  <∆G_bound>  (107) 
-7.122007

>  <regarded>  (107) 
mArh-3ew5_A_0_A,mArh-5cms_D_3_D

>  <ref_pdb>  (107) 
nan

>  <smiles>  (107) 
NC1NCNC2C1NCN2C1OC(CO[PH]([O-])(O)OP(=O)(O[O-])OC[C@@H](O)CO)C(O)C1O

>  <submitter_email>  (107) 
nan

>  <disregarded>  (107) 


>  <LE>  (107) 
-0.409794

>  <submitter_institution>  (107) 
nan

>  <ref_mols>  (107) 
mArh-3ew5_A_0_A,mArh-5cms_D_3_D

>  <N_constrained_atoms>  (107) 
33.0

>  <ref_url>  (107) 
nan

>  <method>  (107) 
nan

>  <comRMSD>  (107) 
0.787504

>  <N_unconstrained_atoms>  (107) 
0.0

>  <∆∆G>  (107) 
-13.523204

>  <runtime>  (107) 
22.788079

>  <generation_date>  (107) 
nan

$$$$
mArh-5cms_I_8_I-mArh-x0253_0_A
     RDKit          3D

 49 53  0  0  0  0  0  0  0  0999 V2000
   -1.5600   17.9750   -6.1370 P   0  0  1  0  0  0  0  0  0  0  0  0
   -0.0920   17.2890   -6.2850 O   0  0  0  0  0  0  0  0  0  0  0  0
    0.6360   16.5610   -5.2850 C   0  0  0  0  0  0  0  0  0  0  0  0
   -2.7030   17.2130   -6.7000 O   0  0  0  0  0  0  0  0  0  0  0  0
   -1.7350   18.2820   -4.5860 O   0  0  0  0  0  0  0  0  0  0  0  0
   -1.3940   19.3960   -6.7500 O   0  0  0  0  0  0  0  0  0  0  0  0
   -0.1760   19.6390   -7.7120 P   0  0  1  0  0  0  0  0  0  0  0  0
    1.1540   19.6830   -7.0700 O   0  0  0  0  0  0  0  0  0  0  0  0
   -0.2770   18.4960   -8.8020 O   0  0  0  0  0  0  0  0  0  0  0  0
   -0.6560   20.9340   -8.4760 O   0  0  0  0  0  0  0  0  0  0  0  0
   -0.2590   15.5060   -4.6430 C   0  0  2  0  0  0  0  0  0  0  0  0
   -1.7700   21.6020   -7.9010 C   0  0  0  0  0  0  0  0  0  0  0  0
   -0.2690   15.4640   -3.2370 O   0  0  0  0  0  0  0  0  0  0  0  0
   -0.2790   13.9970   -5.0190 C   0  0  1  0  0  0  0  0  0  0  0  0
    0.7710   12.9990   -4.7280 N   0  0  0  0  0  0  0  0  0  0  0  0
   -1.3990   13.5610   -4.0620 C   0  0  1  0  0  0  0  0  0  0  0  0
   -1.5610   14.8400   -3.2530 C   0  0  1  0  0  0  0  0  0  0  0  0
   -2.8000   21.8610   -8.9830 C   0  0  2  0  0  0  0  0  0  0  0  0
   -2.5240   13.0610   -4.7790 O   0  0  0  0  0  0  0  0  0  0  0  0
    0.4360   11.8800   -5.5230 N   0  0  0  0  0  0  0  0  0  0  0  0
    1.0100   12.5440   -3.4200 C   0  0  0  0  0  0  0  0  0  0  0  0
   -3.1580   23.2930   -9.0290 C   0  0  1  0  0  0  0  0  0  0  0  0
   -4.1340   21.3610   -8.7390 O   0  0  0  0  0  0  0  0  0  0  0  0
   -2.2440   14.9360   -2.0110 N   0  0  0  0  0  0  0  0  0  0  0  0
   -2.0540   24.1200   -9.0570 O   0  0  0  0  0  0  0  0  0  0  0  0
    1.2140   11.6490   -6.6180 C   0  0  0  0  0  0  0  0  0  0  0  0
    1.6900   13.1170   -2.5800 O   0  0  0  0  0  0  0  0  0  0  0  0
    0.4020   11.3720   -3.1270 O   0  0  0  0  0  0  0  0  0  0  0  0
   -5.0330   22.3330   -9.3500 C   0  0  2  0  0  0  0  0  0  0  0  0
   -4.1590   23.2450  -10.1720 C   0  0  2  0  0  0  0  0  0  0  0  0
   -1.7840   14.8520   -0.7220 C   0  0  0  0  0  0  0  0  0  0  0  0
   -3.5820   15.1800   -1.9700 C   0  0  0  0  0  0  0  0  0  0  0  0
   -5.7040   23.0750   -8.3790 O   0  0  0  0  0  0  0  0  0  0  0  0
   -3.8920   22.4430  -11.3350 O   0  0  0  0  0  0  0  0  0  0  0  0
    2.3250   12.1220   -6.6840 O   0  0  0  0  0  0  0  0  0  0  0  0
   -2.9250   15.0910    0.0220 C   0  0  0  0  0  0  0  0  0  0  0  0
   -0.5410   14.6220   -0.2500 N   0  0  0  0  0  0  0  0  0  0  0  0
   -4.0280   15.2790   -0.7610 N   0  0  0  0  0  0  0  0  0  0  0  0
    0.5980   10.7550   -7.6490 C   0  0  0  0  0  0  0  0  0  0  0  0
   -2.7910   15.1180    1.3850 C   0  0  0  0  0  0  0  0  0  0  0  0
   -0.5480   14.6500    1.1010 C   0  0  0  0  0  0  0  0  0  0  0  0
   -0.3610    9.8450   -7.1940 C   0  0  0  0  0  0  0  0  0  0  0  0
    0.9270   10.7870   -9.0130 C   0  0  0  0  0  0  0  0  0  0  0  0
   -3.8800   15.4070    2.1780 N   0  0  0  0  0  0  0  0  0  0  0  0
   -1.5830   14.8780    1.9290 N   0  0  0  0  0  0  0  0  0  0  0  0
   -0.9920    8.9700   -8.0830 C   0  0  0  0  0  0  0  0  0  0  0  0
    0.3010    9.9150   -9.9020 C   0  0  0  0  0  0  0  0  0  0  0  0
   -2.0220    7.9990   -7.5890 C   0  0  0  0  0  0  0  0  0  0  0  0
   -0.6540    9.0120   -9.4410 C   0  0  0  0  0  0  0  0  0  0  0  0
  1  2  1  0
  2  3  1  0
  1  4  2  0
  1  5  1  1
  1  6  1  0
  6  7  1  0
  7  8  2  0
  7  9  1  6
  7 10  1  0
 11  3  1  1
 10 12  1  0
 11 13  1  0
 11 14  1  0
 14 15  1  1
 14 16  1  0
 13 17  1  0
 16 17  1  0
 18 12  1  1
 16 19  1  6
 15 20  1  0
 15 21  1  0
 18 22  1  0
 18 23  1  0
 17 24  1  1
 22 25  1  6
 20 26  1  0
 21 27  2  0
 21 28  1  0
 23 29  1  0
 22 30  1  0
 29 30  1  0
 24 31  1  0
 24 32  1  0
 29 33  1  1
 30 34  1  6
 26 35  2  0
 31 36  2  0
 31 37  1  0
 32 38  2  0
 36 38  1  0
 26 39  1  0
 36 40  1  0
 37 41  2  0
 39 42  2  0
 39 43  1  0
 40 44  1  0
 40 45  2  0
 41 45  1  0
 42 46  1  0
 43 47  2  0
 46 48  1  0
 46 49  2  0
 47 49  1  0
M  END
>  <%Rank>  (108) 
42.460317

>  <N_hits>  (108) 
2

>  <submitter_name>  (108) 
nan

>  <original SMILES>  (108) 
nan

>  <∆G_unbound>  (108) 
7.505066

>  <∆G_bound>  (108) 
-9.002204

>  <regarded>  (108) 
mArh-5cms_I_8_I,mArh-x0253_0_A

>  <ref_pdb>  (108) 
nan

>  <smiles>  (108) 
Cc1cccc(C(=O)NN(C(=O)O)C2C(CO[P@@](=O)(O)O[P@@](=O)(O)OCC3OC(O)C(O)C3O)OC(n3cnc4c(N)ncnc43)C2O)c1

>  <submitter_email>  (108) 
nan

>  <disregarded>  (108) 


>  <LE>  (108) 
-0.336883

>  <submitter_institution>  (108) 
nan

>  <ref_mols>  (108) 
mArh-5cms_I_8_I,mArh-x0253_0_A

>  <N_constrained_atoms>  (108) 
49.0

>  <ref_url>  (108) 
nan

>  <method>  (108) 
nan

>  <comRMSD>  (108) 
0.883162

>  <N_unconstrained_atoms>  (108) 
0.0

>  <∆∆G>  (108) 
-16.507271

>  <runtime>  (108) 
60.90948

>  <generation_date>  (108) 
nan

$$$$
mArh-5cb5_G_0_G-mArh-5cb5_N_0_N
     RDKit          3D

 36 39  0  0  0  0  0  0  0  0999 V2000
   -1.5510   18.5800   -5.8890 P   0  0  1  0  0  0  0  0  0  0  0  0
   -0.4270   17.9330   -4.9480 O   0  0  0  0  0  0  0  0  0  0  0  0
    0.3950   16.8550   -5.3650 C   0  0  0  0  0  0  0  0  0  0  0  0
   -2.4190   17.7020   -6.7500 O   0  0  0  0  0  0  0  0  0  0  0  0
   -2.4050   19.4180   -4.8370 O   0  0  0  0  0  0  0  0  0  0  0  0
   -0.8300   19.7950   -6.5490 O   0  0  0  0  0  0  0  0  0  0  0  0
   -0.4470   19.8470   -8.0570 P   0  0  2  0  0  0  0  0  0  0  0  0
    0.0020   18.6330   -8.7380 O   0  0  0  0  0  0  0  0  0  0  0  0
    0.6970   20.9110   -8.0490 O   0  0  0  0  0  0  0  0  0  0  0  0
   -1.6440   20.6640   -8.7070 O   0  0  0  0  0  0  0  0  0  0  0  0
   -0.3530   15.6140   -4.9360 C   0  0  2  0  0  0  0  0  0  0  0  0
   -1.8320   21.9320   -8.1220 C   0  0  0  0  0  0  0  0  0  0  0  0
   -0.4190   15.6420   -3.5320 O   0  0  0  0  0  0  0  0  0  0  0  0
   -0.0370   14.1310   -5.2170 C   0  0  1  0  0  0  0  0  0  0  0  0
    1.2990   13.7650   -4.8620 O   0  0  0  0  0  0  0  0  0  0  0  0
   -1.0120   13.4640   -4.2030 C   0  0  2  0  0  0  0  0  0  0  0  0
   -1.4800   14.7270   -3.4610 C   0  0  1  0  0  0  0  0  0  0  0  0
   -3.2810   22.2620   -7.8060 C   0  0  1  0  0  0  0  0  0  0  0  0
   -0.3730   12.4880   -3.4080 O   0  0  0  0  0  0  0  0  0  0  0  0
   -3.8150   23.5480   -8.3970 C   0  0  1  0  0  0  0  0  0  0  0  0
   -4.2950   21.3580   -8.2250 O   0  0  0  0  0  0  0  0  0  0  0  0
   -2.1650   14.8530   -2.2060 N   0  0  0  0  0  0  0  0  0  0  0  0
   -3.9920   23.5780   -9.8050 O   0  0  0  0  0  0  0  0  0  0  0  0
   -5.4810   22.0130   -7.7220 C   0  0  2  0  0  0  0  0  0  0  0  0
   -5.1540   23.5220   -7.6880 C   0  0  2  0  0  0  0  0  0  0  0  0
   -1.7410   14.8090   -0.9000 C   0  0  0  0  0  0  0  0  0  0  0  0
   -3.5090   15.1000   -2.2040 C   0  0  0  0  0  0  0  0  0  0  0  0
   -5.7490   21.5850   -6.3840 O   0  0  0  0  0  0  0  0  0  0  0  0
   -6.0780   24.3040   -8.4720 O   0  0  0  0  0  0  0  0  0  0  0  0
   -2.9070   15.0650   -0.1820 C   0  0  0  0  0  0  0  0  0  0  0  0
   -0.5160   14.5980   -0.3780 N   0  0  0  0  0  0  0  0  0  0  0  0
   -3.9920   15.2330   -1.0050 N   0  0  0  0  0  0  0  0  0  0  0  0
   -2.8050   15.1250    1.2000 C   0  0  0  0  0  0  0  0  0  0  0  0
   -0.5520   14.6620    0.9700 C   0  0  0  0  0  0  0  0  0  0  0  0
   -3.9030   15.4190    1.9840 N   0  0  0  0  0  0  0  0  0  0  0  0
   -1.6050   14.9040    1.7790 N   0  0  0  0  0  0  0  0  0  0  0  0
  1  2  1  0
  2  3  1  0
  1  4  2  0
  1  5  1  1
  1  6  1  0
  6  7  1  0
  7  8  2  0
  7  9  1  1
  7 10  1  0
 11  3  1  1
 10 12  1  0
 11 13  1  0
 11 14  1  0
 14 15  1  1
 14 16  1  0
 13 17  1  0
 16 17  1  0
 18 12  1  6
 16 19  1  1
 18 20  1  0
 18 21  1  0
 17 22  1  1
 20 23  1  6
 21 24  1  0
 20 25  1  0
 24 25  1  0
 22 26  1  0
 22 27  1  0
 24 28  1  1
 25 29  1  6
 26 30  2  0
 26 31  1  0
 27 32  2  0
 30 32  1  0
 30 33  1  0
 31 34  2  0
 33 35  1  0
 33 36  2  0
 34 36  1  0
M  END
>  <%Rank>  (109) 
42.857143

>  <N_hits>  (109) 
2

>  <submitter_name>  (109) 
nan

>  <original SMILES>  (109) 
nan

>  <∆G_unbound>  (109) 
4.299768

>  <∆G_bound>  (109) 
-16.480624

>  <regarded>  (109) 
mArh-5cb5_G_0_G,mArh-5cb5_N_0_N

>  <ref_pdb>  (109) 
nan

>  <smiles>  (109) 
Nc1ncnc2c1ncn2C1OC(CO[P@@](=O)(O)O[P@@](=O)(O)OCC2OC(O)C(O)C2O)C(O)C1O

>  <submitter_email>  (109) 
nan

>  <disregarded>  (109) 


>  <LE>  (109) 
-0.577233

>  <submitter_institution>  (109) 
nan

>  <ref_mols>  (109) 
mArh-5cb5_G_0_G,mArh-5cb5_N_0_N

>  <N_constrained_atoms>  (109) 
36.0

>  <ref_url>  (109) 
nan

>  <method>  (109) 
nan

>  <comRMSD>  (109) 
0.903204

>  <N_unconstrained_atoms>  (109) 
0.0

>  <∆∆G>  (109) 
-20.780392

>  <runtime>  (109) 
53.323129

>  <generation_date>  (109) 
nan

$$$$
mArh-3ew5_A_0_A-mArh-5cb5_L_0_L
     RDKit          3D

 39 43  0  0  0  0  0  0  0  0999 V2000
   -0.3780   20.2110   -7.8530 P   0  0  2  0  0  0  0  0  0  0  0  0
   -1.9500   20.5280   -8.1660 O   0  0  0  0  0  0  0  0  0  0  0  0
   -2.5460   21.8480   -8.0840 C   0  0  2  0  0  0  0  0  0  0  0  0
    0.5170   21.3960   -7.9210 O   0  0  0  0  0  0  0  0  0  0  0  0
   -0.0530   19.0210   -8.8830 O   0  0  0  0  0  0  0  0  0  0  0  0
   -0.3680   19.4060   -6.5020 O   0  0  0  0  0  0  0  0  0  0  0  0
   -1.4570   18.3330   -6.1080 P   0  0  2  0  0  0  0  0  0  0  0  0
   -3.1200   21.9780   -6.6840 C   0  0  2  0  0  0  0  0  0  0  0  0
   -0.6670   16.9560   -5.9340 O   0  0  0  0  0  0  0  0  0  0  0  0
   -2.6230   18.1790   -6.9940 O   0  0  0  0  0  0  0  0  0  0  0  0
   -1.7910   18.6910   -4.5960 O   0  0  0  0  0  0  0  0  0  0  0  0
   -3.7530   22.1810   -9.0010 C   0  0  1  0  0  0  0  0  0  0  0  0
   -4.4310   21.2250   -6.4510 C   0  0  0  0  0  0  0  0  0  0  0  0
   -3.3340   23.3730   -6.4040 O   0  0  0  0  0  0  0  0  0  0  0  0
    0.6640   16.9570   -5.4470 C   0  0  0  0  0  0  0  0  0  0  0  0
   -5.1370   21.6490   -8.5250 C   0  0  1  0  0  0  0  0  0  0  0  0
   -4.1670   23.6670   -9.1520 C   0  0  1  0  0  0  0  0  0  0  0  0
   -5.4690   21.8050   -7.1680 O   0  0  0  0  0  0  0  0  0  0  0  0
   -3.9180   24.2250  -10.3930 O   0  0  0  0  0  0  0  0  0  0  0  0
    0.8910   15.6770   -4.6380 C   0  0  1  0  0  0  0  0  0  0  0  0
   -6.0840   22.4370   -9.3660 C   0  0  2  0  0  0  0  0  0  0  0  0
   -5.6520   23.7810   -8.9100 C   0  0  0  0  0  0  0  0  0  0  0  0
   -7.4420   22.3390   -9.0640 O   0  0  0  0  0  0  0  0  0  0  0  0
    0.2430   15.8330   -3.3520 O   0  0  0  0  0  0  0  0  0  0  0  0
    0.3430   14.4750   -5.1250 C   0  0  1  0  0  0  0  0  0  0  0  0
    1.3280   13.6380   -5.7230 O   0  0  0  0  0  0  0  0  0  0  0  0
   -0.2300   13.7630   -4.0870 C   0  0  1  0  0  0  0  0  0  0  0  0
   -0.2280   14.5280   -2.9340 C   0  0  2  0  0  0  0  0  0  0  0  0
   -1.4350   13.1000   -4.4080 O   0  0  0  0  0  0  0  0  0  0  0  0
   -1.3630   14.7160   -2.0610 N   0  0  0  0  0  0  0  0  0  0  0  0
   -1.2580   14.7030   -0.7210 C   0  0  0  0  0  0  0  0  0  0  0  0
   -2.6900   14.9490   -2.3730 C   0  0  0  0  0  0  0  0  0  0  0  0
   -2.5310   14.9470   -0.2400 C   0  0  0  0  0  0  0  0  0  0  0  0
   -0.1360   14.5020   -0.0350 N   0  0  0  0  0  0  0  0  0  0  0  0
   -3.4280   15.0970   -1.2810 N   0  0  0  0  0  0  0  0  0  0  0  0
   -2.6520   15.0020    1.1530 C   0  0  0  0  0  0  0  0  0  0  0  0
   -0.3830   14.5580    1.2790 C   0  0  0  0  0  0  0  0  0  0  0  0
   -3.8430   15.2720    1.7990 N   0  0  0  0  0  0  0  0  0  0  0  0
   -1.5520   14.7870    1.8970 N   0  0  0  0  0  0  0  0  0  0  0  0
  1  2  1  0
  3  2  1  6
  1  4  2  0
  1  5  1  6
  1  6  1  0
  6  7  1  0
  3  8  1  0
  7  9  1  0
  7 10  2  0
  7 11  1  1
  3 12  1  0
  8 13  1  0
  8 14  1  6
  9 15  1  0
 12 16  1  0
 12 17  1  1
 13 18  1  0
 16 18  1  1
 17 19  1  6
 20 15  1  6
 16 21  1  0
 17 22  1  0
 21 22  1  0
 21 23  1  1
 20 24  1  0
 20 25  1  0
 25 26  1  1
 25 27  1  0
 24 28  1  0
 27 28  1  0
 27 29  1  6
 28 30  1  6
 30 31  1  0
 30 32  1  0
 31 33  2  0
 31 34  1  0
 32 35  2  0
 33 35  1  0
 33 36  1  0
 34 37  2  0
 36 38  1  0
 36 39  2  0
 37 39  1  0
M  END
>  <%Rank>  (110) 
43.253968

>  <N_hits>  (110) 
2

>  <submitter_name>  (110) 
nan

>  <original SMILES>  (110) 
nan

>  <∆G_unbound>  (110) 
5.852545

>  <∆G_bound>  (110) 
-15.342186

>  <regarded>  (110) 
mArh-3ew5_A_0_A,mArh-5cb5_L_0_L

>  <ref_pdb>  (110) 
nan

>  <smiles>  (110) 
Nc1ncnc2c1ncn2C1OC(CO[P@@](=O)(O)OP(=O)(O)OC2C3C(O)CC(O)C3OC[C@@H]2O)C(O)C1O

>  <submitter_email>  (110) 
nan

>  <disregarded>  (110) 


>  <LE>  (110) 
-0.543455

>  <submitter_institution>  (110) 
nan

>  <ref_mols>  (110) 
mArh-3ew5_A_0_A,mArh-5cb5_L_0_L

>  <N_constrained_atoms>  (110) 
36.0

>  <ref_url>  (110) 
nan

>  <method>  (110) 
nan

>  <comRMSD>  (110) 
0.846361

>  <N_unconstrained_atoms>  (110) 
3.0

>  <∆∆G>  (110) 
-21.194731

>  <runtime>  (110) 
40.14933

>  <generation_date>  (110) 
nan

$$$$
mArh-1spv_0_A-mArh-1vhu_0_A
     RDKit          3D

 14 14  0  0  0  0  0  0  0  0999 V2000
    0.7770   19.5510   -6.9240 N   0  0  0  0  0  0  0  0  0  0  0  0
   -0.5040   19.1210   -7.9750 S   0  0  1  0  0  0  0  0  0  0  0  0
    0.1200   18.4730   -9.0780 O   0  0  0  0  0  0  0  0  0  0  0  0
    1.5060   20.7210   -7.3550 O   0  0  0  0  0  0  0  0  0  0  0  0
   -1.4890   18.3110   -7.2830 O   0  0  0  0  0  0  0  0  0  0  0  0
   -1.2160   20.6640   -8.5460 C   0  0  0  0  0  0  0  0  0  0  0  0
   -2.0410   21.5510   -7.6110 C   0  0  1  0  0  0  0  0  0  0  0  0
   -1.4800   22.9600   -7.6250 C   0  0  0  0  0  0  0  0  0  0  0  0
   -3.4860   21.6270   -7.8940 N   0  0  0  0  0  0  0  0  0  0  0  0
   -3.7800   22.2860   -9.1780 C   0  0  0  0  0  0  0  0  0  0  0  0
   -4.1260   22.3090   -6.7440 C   0  0  0  0  0  0  0  0  0  0  0  0
   -5.2330   22.7350   -9.2940 C   0  0  0  0  0  0  0  0  0  0  0  0
   -5.3900   23.1310   -7.0060 C   0  0  0  0  0  0  0  0  0  0  0  0
   -5.5170   23.7130   -8.3040 O   0  0  0  0  0  0  0  0  0  0  0  0
  1  2  2  0
  2  3  2  0
  1  4  1  0
  2  5  1  1
  2  6  1  0
  6  7  1  0
  7  8  1  6
  7  9  1  0
  9 10  1  0
  9 11  1  0
 10 12  1  0
 11 13  1  0
 12 14  1  0
 13 14  1  0
M  CHG  2   4  -1   5  -1
M  END
>  <%Rank>  (111) 
43.650794

>  <N_hits>  (111) 
2

>  <submitter_name>  (111) 
nan

>  <original SMILES>  (111) 
nan

>  <∆G_unbound>  (111) 
0.384435

>  <∆G_bound>  (111) 
-16.417541

>  <regarded>  (111) 
mArh-1spv_0_A,mArh-1vhu_0_A

>  <ref_pdb>  (111) 
nan

>  <smiles>  (111) 
CC(CS(=O)([O-])=N[O-])N1CCOCC1

>  <submitter_email>  (111) 
nan

>  <disregarded>  (111) 


>  <LE>  (111) 
-1.200141

>  <submitter_institution>  (111) 
nan

>  <ref_mols>  (111) 
mArh-1spv_0_A,mArh-1vhu_0_A

>  <N_constrained_atoms>  (111) 
14.0

>  <ref_url>  (111) 
nan

>  <method>  (111) 
nan

>  <comRMSD>  (111) 
0.871896

>  <N_unconstrained_atoms>  (111) 
0.0

>  <∆∆G>  (111) 
-16.801976

>  <runtime>  (111) 
21.783565

>  <generation_date>  (111) 
nan

$$$$
mArh-x0587_0_A-mArh-5cms_L_11_L
     RDKit          3D

 48 52  0  0  0  0  0  0  0  0999 V2000
   -7.8480   14.7210    3.9570 N   0  0  0  0  0  0  0  0  0  0  0  0
   -8.3210   14.8660    2.6900 C   0  0  0  0  0  0  0  0  0  0  0  0
   -9.5070   15.0970    2.4860 O   0  0  0  0  0  0  0  0  0  0  0  0
   -7.3990   14.7610    1.5410 C   0  0  0  0  0  0  0  0  0  0  0  0
   -7.7630   14.5060    0.2380 C   0  0  0  0  0  0  0  0  0  0  0  0
   -6.0430   14.9380    1.7170 C   0  0  0  0  0  0  0  0  0  0  0  0
   -6.8820   14.4360   -0.7980 N   0  0  0  0  0  0  0  0  0  0  0  0
   -5.1180   14.8790    0.7270 N   0  0  0  0  0  0  0  0  0  0  0  0
   -5.5610   14.6300   -0.5240 C   0  0  0  0  0  0  0  0  0  0  0  0
   -4.5360   14.5640   -1.6990 C   0  0  0  0  0  0  0  0  0  0  0  0
   -4.3150   13.2810   -2.1210 F   0  0  0  0  0  0  0  0  0  0  0  0
   -5.0830   15.1690   -2.7940 F   0  0  0  0  0  0  0  0  0  0  0  0
   -3.2310   15.2230   -1.4750 N   0  0  0  0  0  0  0  0  0  0  0  0
   -2.4440   14.6500   -0.3800 C   0  0  2  0  0  0  0  0  0  0  0  0
   -2.3370   15.1370   -2.6600 C   0  0  0  0  0  0  0  0  0  0  0  0
   -2.3170   15.2800    0.9910 C   0  0  1  0  0  0  0  0  0  0  0  0
   -1.0290   14.9300   -0.8530 C   0  0  2  0  0  0  0  0  0  0  0  0
   -1.1080   14.4510   -2.1750 N   0  0  0  0  0  0  0  0  0  0  0  0
   -3.5470   15.4990    1.7160 N   0  0  0  0  0  0  0  0  0  0  0  0
    0.1270   14.5760   -2.9320 C   0  0  2  0  0  0  0  0  0  0  0  0
   -1.4940   14.4370    1.7960 N   0  0  0  0  0  0  0  0  0  0  0  0
   -0.0360   14.1600   -0.1460 N   0  0  0  0  0  0  0  0  0  0  0  0
    0.2440   15.9020   -3.4720 O   0  0  0  0  0  0  0  0  0  0  0  0
    0.5410   13.5890   -4.0390 C   0  0  1  0  0  0  0  0  0  0  0  0
   -0.1380   14.2740    1.3060 C   0  0  0  0  0  0  0  0  0  0  0  0
   -0.2880   12.4380   -4.2440 O   0  0  0  0  0  0  0  0  0  0  0  0
    0.9460   15.8010   -4.7200 C   0  0  1  0  0  0  0  0  0  0  0  0
    0.4720   14.4400   -5.2800 C   0  0  1  0  0  0  0  0  0  0  0  0
    0.6460   17.0990   -5.4620 C   0  0  0  0  0  0  0  0  0  0  0  0
    1.2760   13.7980   -6.2350 O   0  0  0  0  0  0  0  0  0  0  0  0
   -0.5970   17.0110   -6.1210 O   0  0  0  0  0  0  0  0  0  0  0  0
   -1.7760   18.0680   -6.0660 P   0  0  1  0  0  0  0  0  0  0  0  0
   -2.9900   17.5590   -6.7270 O   0  0  0  0  0  0  0  0  0  0  0  0
   -1.8950   18.2520   -4.4910 O   0  0  0  0  0  0  0  0  0  0  0  0
   -1.1850   19.4170   -6.5710 O   0  0  0  0  0  0  0  0  0  0  0  0
   -0.1870   19.6240   -7.7470 P   0  0  1  0  0  0  0  0  0  0  0  0
    1.1140   20.2420   -7.4100 O   0  0  0  0  0  0  0  0  0  0  0  0
   -0.0800   18.2380   -8.5210 O   0  0  0  0  0  0  0  0  0  0  0  0
   -1.0160   20.2550   -8.9160 O   0  0  0  0  0  0  0  0  0  0  0  0
   -1.0640   21.6570   -8.9890 C   0  0  0  0  0  0  0  0  0  0  0  0
   -1.9740   22.0550  -10.1280 C   0  0  2  0  0  0  0  0  0  0  0  0
   -1.8850   23.5320  -10.4960 C   0  0  1  0  0  0  0  0  0  0  0  0
   -3.3390   21.7610   -9.7730 O   0  0  0  0  0  0  0  0  0  0  0  0
   -0.9580   23.7630  -11.5580 O   0  0  0  0  0  0  0  0  0  0  0  0
   -4.1340   22.8880  -10.0740 C   0  0  2  0  0  0  0  0  0  0  0  0
   -3.2960   23.7990  -10.9640 C   0  0  2  0  0  0  0  0  0  0  0  0
   -4.4740   23.5750   -8.8650 O   0  0  0  0  0  0  0  0  0  0  0  0
   -3.4420   23.5580  -12.3510 O   0  0  0  0  0  0  0  0  0  0  0  0
  1  2  1  0
  2  3  2  0
  2  4  1  0
  4  5  2  0
  4  6  1  0
  5  7  1  0
  6  8  2  0
  7  9  2  0
  8  9  1  0
  9 10  1  0
 10 11  1  0
 10 12  1  0
 10 13  1  0
 14 13  1  6
 13 15  1  0
 14 16  1  0
 14 17  1  0
 15 18  1  0
 17 18  1  0
 16 19  1  1
 20 18  1  6
 16 21  1  0
 17 22  1  1
 20 23  1  0
 20 24  1  0
 21 25  1  0
 22 25  1  0
 24 26  1  6
 23 27  1  0
 24 28  1  0
 27 28  1  0
 27 29  1  6
 28 30  1  6
 29 31  1  0
 31 32  1  0
 32 33  2  0
 32 34  1  1
 32 35  1  0
 35 36  1  0
 36 37  2  0
 36 38  1  6
 36 39  1  0
 39 40  1  0
 41 40  1  1
 41 42  1  0
 41 43  1  0
 42 44  1  6
 43 45  1  0
 42 46  1  0
 45 46  1  0
 45 47  1  1
 46 48  1  6
M  END
>  <%Rank>  (112) 
44.047619

>  <N_hits>  (112) 
2

>  <submitter_name>  (112) 
nan

>  <original SMILES>  (112) 
nan

>  <∆G_unbound>  (112) 
5.983857

>  <∆G_bound>  (112) 
-6.596642

>  <regarded>  (112) 
mArh-x0587_0_A,mArh-5cms_L_11_L

>  <ref_pdb>  (112) 
nan

>  <smiles>  (112) 
NC(=O)c1cnc(C(F)(F)N2CN(C3OC(CO[P@@](=O)(O)O[P@@](=O)(O)OCC4OC(O)C(O)C4O)C(O)C3O)C3NCNC(N)C32)nc1

>  <submitter_email>  (112) 
nan

>  <disregarded>  (112) 


>  <LE>  (112) 
-0.262094

>  <submitter_institution>  (112) 
nan

>  <ref_mols>  (112) 
mArh-x0587_0_A,mArh-5cms_L_11_L

>  <N_constrained_atoms>  (112) 
48.0

>  <ref_url>  (112) 
nan

>  <method>  (112) 
nan

>  <comRMSD>  (112) 
0.844596

>  <N_unconstrained_atoms>  (112) 
0.0

>  <∆∆G>  (112) 
-12.580499

>  <runtime>  (112) 
65.524263

>  <generation_date>  (112) 
nan

$$$$
mArh-x0962_0_A-mArh-x0855_0_A
     RDKit          3D

 20 21  0  0  0  0  0  0  0  0999 V2000
   -2.7770   15.1740   -2.4670 N   0  0  0  0  0  0  0  0  0  0  0  0
   -2.6930   14.2880   -1.3110 C   0  0  1  0  0  0  0  0  0  0  0  0
   -1.2650   14.2080   -0.7270 C   0  0  0  0  0  0  0  0  0  0  0  0
   -3.6820   14.7010   -0.2870 C   0  0  0  0  0  0  0  0  0  0  0  0
   -0.3380   13.3280   -1.5690 C   0  0  0  0  0  0  0  0  0  0  0  0
   -3.2940   15.0830    0.9660 N   0  0  0  0  0  0  0  0  0  0  0  0
   -5.0530   14.8010   -0.2800 C   0  0  0  0  0  0  0  0  0  0  0  0
    1.0600   13.9240   -1.7280 C   0  0  0  0  0  0  0  0  0  0  0  0
   -4.4190   15.3910    1.6690 C   0  0  0  0  0  0  0  0  0  0  0  0
   -5.4950   15.2220    0.9370 N   0  0  0  0  0  0  0  0  0  0  0  0
    1.8000   13.0220   -2.5570 O   0  0  0  0  0  0  0  0  0  0  0  0
    1.0450   12.1170   -3.2300 C   0  0  0  0  0  0  0  0  0  0  0  0
    0.6670   11.0530   -2.7420 O   0  0  0  0  0  0  0  0  0  0  0  0
    0.6980   12.5360   -4.6350 C   0  0  0  0  0  0  0  0  0  0  0  0
   -0.3630   11.6930   -5.1460 N   0  0  0  0  0  0  0  0  0  0  0  0
   -0.2700   10.7560   -6.1360 C   0  0  0  0  0  0  0  0  0  0  0  0
   -1.6020   11.7930   -4.6190 N   0  0  0  0  0  0  0  0  0  0  0  0
   -1.5220   10.2160   -6.2390 C   0  0  0  0  0  0  0  0  0  0  0  0
   -2.3090   10.8820   -5.2940 C   0  0  0  0  0  0  0  0  0  0  0  0
   -2.1000    8.8680   -7.3840 Br  0  0  0  0  0  0  0  0  0  0  0  0
  2  1  1  6
  2  3  1  0
  2  4  1  0
  3  5  1  0
  4  6  1  0
  4  7  2  0
  5  8  1  0
  6  9  1  0
  7 10  1  0
  9 10  2  0
  8 11  1  0
 11 12  1  0
 12 13  2  0
 12 14  1  0
 14 15  1  0
 15 16  1  0
 15 17  1  0
 16 18  2  0
 17 19  2  0
 18 19  1  0
 18 20  1  0
M  END
>  <%Rank>  (113) 
44.444444

>  <N_hits>  (113) 
2

>  <submitter_name>  (113) 
nan

>  <original SMILES>  (113) 
nan

>  <∆G_unbound>  (113) 
0.546456

>  <∆G_bound>  (113) 
-3.230577

>  <regarded>  (113) 
mArh-x0962_0_A,mArh-x0855_0_A

>  <ref_pdb>  (113) 
nan

>  <smiles>  (113) 
NC(CCCOC(=O)Cn1cc(Br)cn1)c1cnc[nH]1

>  <submitter_email>  (113) 
nan

>  <disregarded>  (113) 


>  <LE>  (113) 
-0.188852

>  <submitter_institution>  (113) 
nan

>  <ref_mols>  (113) 
mArh-x0962_0_A,mArh-x0855_0_A

>  <N_constrained_atoms>  (113) 
17.0

>  <ref_url>  (113) 
nan

>  <method>  (113) 
nan

>  <comRMSD>  (113) 
0.351254

>  <N_unconstrained_atoms>  (113) 
3.0

>  <∆∆G>  (113) 
-3.777034

>  <runtime>  (113) 
29.214018

>  <generation_date>  (113) 
nan

$$$$
mArh-x0724_0_A-mArh-4iqy_A_0_A
     RDKit          3D

 45 49  0  0  0  0  0  0  0  0999 V2000
   -8.3250   13.6500    4.1960 N   0  0  0  0  0  0  0  0  0  0  0  0
   -8.5500   13.8470    5.6250 C   0  0  0  0  0  0  0  0  0  0  0  0
   -8.0860   14.9160    3.5060 C   0  0  0  0  0  0  0  0  0  0  0  0
   -7.4850   14.7330    2.1500 C   0  0  0  0  0  0  0  0  0  0  0  0
   -6.1610   14.9120    1.7960 C   0  0  0  0  0  0  0  0  0  0  0  0
   -8.0870   14.3590    0.9220 C   0  0  0  0  0  0  0  0  0  0  0  0
   -7.2170   14.3170   -0.1060 N   0  0  0  0  0  0  0  0  0  0  0  0
   -6.0260   14.6700    0.4520 N   0  0  0  0  0  0  0  0  0  0  0  0
   -4.7390   14.8000   -0.3080 C   0  0  1  0  0  0  0  0  0  0  0  0
   -3.6480   13.7030   -0.2650 C   0  0  0  0  0  0  0  0  0  0  0  0
   -4.7700   15.3490   -1.7090 C   0  0  0  0  0  0  0  0  0  0  0  0
   -2.2660   14.3950   -0.5700 C   0  0  1  0  0  0  0  0  0  0  0  0
   -3.6690   15.3880   -2.5140 C   0  0  0  0  0  0  0  0  0  0  0  0
   -2.2550   14.8760   -2.1520 C   0  0  1  0  0  0  0  0  0  0  0  0
   -2.2440   15.3180    0.7130 C   0  0  2  0  0  0  0  0  0  0  0  0
   -0.9960   13.5300   -0.4460 C   0  0  0  0  0  0  0  0  0  0  0  0
   -3.3790   16.1740    1.0020 N   0  0  0  0  0  0  0  0  0  0  0  0
   -1.2730   15.9470   -2.5230 O   0  0  0  0  0  0  0  0  0  0  0  0
   -1.8100   13.7260   -3.2100 C   0  0  2  0  0  0  0  0  0  0  0  0
   -1.0370   16.0610    0.8190 N   0  0  0  0  0  0  0  0  0  0  0  0
   -0.2060   13.8840    0.7190 N   0  0  0  0  0  0  0  0  0  0  0  0
   -1.2580   12.5210   -2.6600 O   0  0  0  0  0  0  0  0  0  0  0  0
   -0.9500   15.7920   -3.9540 C   0  0  2  0  0  0  0  0  0  0  0  0
   -0.7070   14.3130   -4.1190 C   0  0  1  0  0  0  0  0  0  0  0  0
    0.1390   15.2700    0.6600 C   0  0  0  0  0  0  0  0  0  0  0  0
    0.1400   16.6980   -4.5660 C   0  0  0  0  0  0  0  0  0  0  0  0
    0.6260   13.8560   -3.8750 O   0  0  0  0  0  0  0  0  0  0  0  0
   -0.3150   17.1110   -5.8680 O   0  0  0  0  0  0  0  0  0  0  0  0
   -1.6310   18.0150   -5.8700 P   0  0  2  0  0  0  0  0  0  0  0  0
   -2.2150   18.0700   -4.5280 O   0  0  0  0  0  0  0  0  0  0  0  0
   -2.6410   17.3020   -6.8900 O   0  0  0  0  0  0  0  0  0  0  0  0
   -1.2830   19.4120   -6.5090 O   0  0  0  0  0  0  0  0  0  0  0  0
   -0.4130   19.7420   -7.7750 P   0  0  1  0  0  0  0  0  0  0  0  0
    0.8800   20.4330   -7.5670 O   0  0  0  0  0  0  0  0  0  0  0  0
   -0.2800   18.4200   -8.6440 O   0  0  0  0  0  0  0  0  0  0  0  0
   -1.4220   20.5700   -8.6880 O   0  0  0  0  0  0  0  0  0  0  0  0
   -1.9100   21.7470   -8.0790 C   0  0  0  0  0  0  0  0  0  0  0  0
   -3.2970   22.0380   -8.6080 C   0  0  2  0  0  0  0  0  0  0  0  0
   -3.7950   23.4290   -8.2590 C   0  0  1  0  0  0  0  0  0  0  0  0
   -4.2170   21.1300   -8.0500 O   0  0  0  0  0  0  0  0  0  0  0  0
   -4.7180   23.9460   -9.2080 O   0  0  0  0  0  0  0  0  0  0  0  0
   -4.9430   21.7670   -7.0030 C   0  0  1  0  0  0  0  0  0  0  0  0
   -4.4560   23.2110   -6.9010 C   0  0  2  0  0  0  0  0  0  0  0  0
   -6.3170   21.6900   -7.3220 O   0  0  0  0  0  0  0  0  0  0  0  0
   -5.6000   24.0790   -6.7390 O   0  0  0  0  0  0  0  0  0  0  0  0
  1  2  1  0
  1  3  1  0
  3  4  1  0
  4  5  2  0
  4  6  1  0
  6  7  2  0
  5  8  1  0
  7  8  1  0
  9  8  1  6
  9 10  1  0
  9 11  1  0
 12 10  1  1
 11 13  2  0
 12 14  1  0
 14 13  1  6
 12 15  1  0
 12 16  1  0
 15 17  1  6
 14 18  1  0
 14 19  1  0
 15 20  1  0
 16 21  1  0
 19 22  1  1
 18 23  1  0
 19 24  1  0
 23 24  1  0
 20 25  1  0
 21 25  1  0
 23 26  1  1
 24 27  1  1
 26 28  1  0
 28 29  1  0
 29 30  2  0
 29 31  1  6
 29 32  1  0
 32 33  1  0
 33 34  2  0
 33 35  1  6
 33 36  1  0
 36 37  1  0
 38 37  1  1
 38 39  1  0
 38 40  1  0
 39 41  1  6
 40 42  1  0
 39 43  1  0
 42 43  1  0
 42 44  1  6
 43 45  1  6
M  END
>  <%Rank>  (114) 
44.84127

>  <N_hits>  (114) 
2

>  <submitter_name>  (114) 
nan

>  <original SMILES>  (114) 
nan

>  <∆G_unbound>  (114) 
2.519756

>  <∆G_bound>  (114) 
-12.285301

>  <regarded>  (114) 
mArh-x0724_0_A,mArh-4iqy_A_0_A

>  <ref_pdb>  (114) 
nan

>  <smiles>  (114) 
CNCc1cnn(C2C=CC3(OC(CO[P@](=O)(O)O[P@@](=O)(O)OCC4OC(O)C(O)C4O)C(O)C3O)C3(CNCNC3N)C2)c1

>  <submitter_email>  (114) 
nan

>  <disregarded>  (114) 


>  <LE>  (114) 
-0.329001

>  <submitter_institution>  (114) 
nan

>  <ref_mols>  (114) 
mArh-x0724_0_A,mArh-4iqy_A_0_A

>  <N_constrained_atoms>  (114) 
45.0

>  <ref_url>  (114) 
nan

>  <method>  (114) 
nan

>  <comRMSD>  (114) 
0.860295

>  <N_unconstrained_atoms>  (114) 
0.0

>  <∆∆G>  (114) 
-14.805057

>  <runtime>  (114) 
50.101402

>  <generation_date>  (114) 
nan

$$$$
mArh-x0910_1_A-mArh-x0592_0_A
     RDKit          3D

 16 17  0  0  0  0  0  0  0  0999 V2000
   -2.7220   14.6010   -0.8990 N   0  0  0  0  0  0  0  0  0  0  0  0
   -3.6410   14.8740   -0.0400 C   0  0  0  0  0  0  0  0  0  0  0  0
   -3.3310   15.2260    1.2550 N   0  0  0  0  0  0  0  0  0  0  0  0
   -1.5200   14.7180   -0.3690 C   0  0  0  0  0  0  0  0  0  0  0  0
   -1.3820   14.5670    0.9790 N   0  0  0  0  0  0  0  0  0  0  0  0
   -0.3600   14.9770   -0.8960 N   0  0  0  0  0  0  0  0  0  0  0  0
   -5.0460   14.8730   -0.2070 C   0  0  0  0  0  0  0  0  0  0  0  0
   -0.1270   14.7330    1.3600 N   0  0  0  0  0  0  0  0  0  0  0  0
    0.4460   14.9840    0.1850 C   0  0  0  0  0  0  0  0  0  0  0  0
   -5.8390   15.1510   -1.3430 C   0  0  0  0  0  0  0  0  0  0  0  0
   -5.9400   14.5950    0.7780 C   0  0  0  0  0  0  0  0  0  0  0  0
   -7.1450   15.0440   -1.0800 N   0  0  0  0  0  0  0  0  0  0  0  0
   -7.1650   14.7040    0.2300 N   0  0  0  0  0  0  0  0  0  0  0  0
   -8.3990   14.4920    0.9480 C   0  0  0  0  0  0  0  0  0  0  0  0
   -8.0950   14.1050    2.3970 C   0  0  0  0  0  0  0  0  0  0  0  0
   -7.2410   15.0560    3.0370 O   0  0  0  0  0  0  0  0  0  0  0  0
  1  2  2  3
  2  3  1  0
  1  4  1  0
  4  5  1  0
  4  6  2  0
  2  7  1  0
  5  8  1  0
  6  9  1  0
  8  9  2  0
  7 10  1  0
  7 11  2  0
 10 12  2  0
 11 13  1  0
 12 13  1  0
 13 14  1  0
 14 15  1  0
 15 16  1  0
M  END
>  <%Rank>  (115) 
45.238095

>  <N_hits>  (115) 
2

>  <submitter_name>  (115) 
nan

>  <original SMILES>  (115) 
nan

>  <∆G_unbound>  (115) 
1.143347

>  <∆G_bound>  (115) 
-4.089187

>  <regarded>  (115) 
mArh-x0910_1_A,mArh-x0592_0_A

>  <ref_pdb>  (115) 
nan

>  <smiles>  (115) 
NC(=Nc1ncn[nH]1)c1cnn(CCO)c1

>  <submitter_email>  (115) 
nan

>  <disregarded>  (115) 


>  <LE>  (115) 
-0.327033

>  <submitter_institution>  (115) 
nan

>  <ref_mols>  (115) 
mArh-x0910_1_A,mArh-x0592_0_A

>  <N_constrained_atoms>  (115) 
16.0

>  <ref_url>  (115) 
nan

>  <method>  (115) 
nan

>  <comRMSD>  (115) 
0.487865

>  <N_unconstrained_atoms>  (115) 
0.0

>  <∆∆G>  (115) 
-5.232534

>  <runtime>  (115) 
19.946154

>  <generation_date>  (115) 
nan

$$$$
mArh-x0967_0_A-mArh-mac-194_0_A
     RDKit          3D

 12 13  0  0  0  0  0  0  0  0999 V2000
   -7.7120   14.5680    3.1000 N   0  0  0  0  0  0  0  0  0  0  0  0
   -7.0950   14.6420    1.8590 C   0  0  0  0  0  0  0  0  0  0  0  0
   -5.7660   14.7740    1.8350 C   0  0  0  0  0  0  0  0  0  0  0  0
   -7.8170   14.5840    0.5150 C   0  0  0  0  0  0  0  0  0  0  0  0
   -7.0920   14.6680   -0.6670 N   0  0  0  0  0  0  0  0  0  0  0  0
   -5.0480   14.8510    0.6520 C   0  0  0  0  0  0  0  0  0  0  0  0
   -7.7370   14.6170   -1.7710 O   0  0  0  0  0  0  0  0  0  0  0  0
   -5.7110   14.8000   -0.5920 C   0  0  0  0  0  0  0  0  0  0  0  0
   -3.6620   14.9760    0.6840 C   0  0  0  0  0  0  0  0  0  0  0  0
   -5.0050   14.8780   -1.7580 N   0  0  0  0  0  0  0  0  0  0  0  0
   -2.9560   15.0450   -0.5030 C   0  0  0  0  0  0  0  0  0  0  0  0
   -3.6650   14.9970   -1.6880 C   0  0  0  0  0  0  0  0  0  0  0  0
  1  2  1  0
  2  3  2  0
  2  4  1  0
  4  5  2  0
  3  6  1  0
  5  7  1  0
  5  8  1  0
  6  8  2  0
  6  9  1  0
  8 10  1  0
  9 11  2  0
 10 12  2  0
 11 12  1  0
M  CHG  2   5   1   7  -1
M  END
>  <%Rank>  (116) 
45.634921

>  <N_hits>  (116) 
2

>  <submitter_name>  (116) 
nan

>  <original SMILES>  (116) 
nan

>  <∆G_unbound>  (116) 
0.06091

>  <∆G_bound>  (116) 
-2.83138

>  <regarded>  (116) 
mArh-x0967_0_A,mArh-mac-194_0_A

>  <ref_pdb>  (116) 
nan

>  <smiles>  (116) 
Nc1cc2cccnc2[n+]([O-])c1

>  <submitter_email>  (116) 
nan

>  <disregarded>  (116) 


>  <LE>  (116) 
-0.241024

>  <submitter_institution>  (116) 
nan

>  <ref_mols>  (116) 
mArh-x0967_0_A,mArh-mac-194_0_A

>  <N_constrained_atoms>  (116) 
12.0

>  <ref_url>  (116) 
nan

>  <method>  (116) 
nan

>  <comRMSD>  (116) 
0.343575

>  <N_unconstrained_atoms>  (116) 
0.0

>  <∆∆G>  (116) 
-2.89229

>  <runtime>  (116) 
15.776944

>  <generation_date>  (116) 
nan

$$$$
mArh-5cb5_Q_0_Q-mArh-6woj_D_0_D
     RDKit          3D

 37 40  0  0  0  0  0  0  0  0999 V2000
   -1.5530   18.5790   -5.9400 P   0  0  1  0  0  0  0  0  0  0  0  0
   -0.0360   18.0850   -5.5190 N   0  0  0  0  0  0  0  0  0  0  0  0
    0.3300   16.8300   -5.8650 C   0  0  0  0  0  0  0  0  0  0  0  0
   -2.5040   17.6450   -6.6480 O   0  0  0  0  0  0  0  0  0  0  0  0
   -2.2580   19.2940   -4.6990 O   0  0  0  0  0  0  0  0  0  0  0  0
   -1.3260   19.8530   -6.7770 O   0  0  0  0  0  0  0  0  0  0  0  0
   -0.4630   20.1390   -8.0290 P   0  0  1  0  0  0  0  0  0  0  0  0
    0.3310   18.1840   -3.9430 P   0  0  0  0  0  0  0  0  0  0  0  0
    0.6640   21.0970   -7.8570 O   0  0  0  0  0  0  0  0  0  0  0  0
   -0.0920   18.7460   -8.7410 O   0  0  0  0  0  0  0  0  0  0  0  0
   -1.6290   20.5700   -9.0070 O   0  0  0  0  0  0  0  0  0  0  0  0
   -0.3110   15.6490   -5.1200 C   0  0  2  0  0  0  0  0  0  0  0  0
   -2.2050   21.8620   -8.9270 C   0  0  0  0  0  0  0  0  0  0  0  0
   -0.1280   15.8890   -3.7100 O   0  0  0  0  0  0  0  0  0  0  0  0
    0.2490   14.2500   -5.3390 C   0  0  1  0  0  0  0  0  0  0  0  0
    1.6630   14.1490   -5.1480 O   0  0  0  0  0  0  0  0  0  0  0  0
   -0.3770   13.5450   -4.1580 C   0  0  1  0  0  0  0  0  0  0  0  0
   -0.3320   14.6190   -3.0600 C   0  0  2  0  0  0  0  0  0  0  0  0
   -3.2430   22.0740   -7.8990 C   0  0  1  0  0  0  0  0  0  0  0  0
   -1.6300   12.9640   -4.4480 O   0  0  0  0  0  0  0  0  0  0  0  0
   -3.7870   23.4880   -7.9440 C   0  0  1  0  0  0  0  0  0  0  0  0
   -4.4200   21.3220   -8.1520 O   0  0  0  0  0  0  0  0  0  0  0  0
   -1.4140   14.7580   -2.1030 N   0  0  0  0  0  0  0  0  0  0  0  0
   -4.4060   23.8960   -9.1670 O   0  0  0  0  0  0  0  0  0  0  0  0
   -5.3970   21.9430   -7.3080 C   0  0  2  0  0  0  0  0  0  0  0  0
   -4.7940   23.2690   -6.8580 C   0  0  2  0  0  0  0  0  0  0  0  0
   -1.2810   14.7470   -0.7590 C   0  0  0  0  0  0  0  0  0  0  0  0
   -2.7570   14.9430   -2.3860 C   0  0  0  0  0  0  0  0  0  0  0  0
   -5.6250   21.1760   -6.1390 O   0  0  0  0  0  0  0  0  0  0  0  0
   -5.7830   24.2740   -6.7730 O   0  0  0  0  0  0  0  0  0  0  0  0
   -2.5580   14.9400   -0.2650 C   0  0  0  0  0  0  0  0  0  0  0  0
   -0.1480   14.5920   -0.0680 N   0  0  0  0  0  0  0  0  0  0  0  0
   -3.4800   15.0590   -1.2870 N   0  0  0  0  0  0  0  0  0  0  0  0
   -2.6800   14.9840    1.1230 C   0  0  0  0  0  0  0  0  0  0  0  0
   -0.3960   14.6350    1.2470 C   0  0  0  0  0  0  0  0  0  0  0  0
   -3.8930   15.2030    1.7460 N   0  0  0  0  0  0  0  0  0  0  0  0
   -1.5720   14.8120    1.8720 N   0  0  0  0  0  0  0  0  0  0  0  0
  1  2  1  0
  2  3  1  0
  1  4  2  0
  1  5  1  1
  1  6  1  0
  6  7  1  0
  2  8  1  0
  7  9  2  0
  7 10  1  6
  7 11  1  0
 12  3  1  6
 11 13  1  0
 12 14  1  0
 12 15  1  0
 15 16  1  1
 15 17  1  0
 14 18  1  0
 17 18  1  0
 19 13  1  6
 17 20  1  6
 19 21  1  0
 19 22  1  0
 18 23  1  6
 21 24  1  6
 22 25  1  0
 21 26  1  0
 25 26  1  0
 23 27  1  0
 23 28  1  0
 25 29  1  1
 26 30  1  6
 27 31  2  0
 27 32  1  0
 28 33  2  0
 31 33  1  0
 31 34  1  0
 32 35  2  0
 34 36  1  0
 34 37  2  0
 35 37  1  0
M  END
>  <%Rank>  (117) 
46.031746

>  <N_hits>  (117) 
2

>  <submitter_name>  (117) 
nan

>  <original SMILES>  (117) 
nan

>  <∆G_unbound>  (117) 
4.920965

>  <∆G_bound>  (117) 
-7.000236

>  <regarded>  (117) 
mArh-5cb5_Q_0_Q,mArh-6woj_D_0_D

>  <ref_pdb>  (117) 
nan

>  <smiles>  (117) 
Nc1ncnc2c1ncn2C1OC(CN([P@H2])[P@@](=O)(O)O[P@@](=O)(O)OCC2OC(O)C(O)C2O)C(O)C1O

>  <submitter_email>  (117) 
nan

>  <disregarded>  (117) 


>  <LE>  (117) 
-0.322195

>  <submitter_institution>  (117) 
nan

>  <ref_mols>  (117) 
mArh-5cb5_Q_0_Q,mArh-6woj_D_0_D

>  <N_constrained_atoms>  (117) 
37.0

>  <ref_url>  (117) 
nan

>  <method>  (117) 
nan

>  <comRMSD>  (117) 
0.798356

>  <N_unconstrained_atoms>  (117) 
0.0

>  <∆∆G>  (117) 
-11.9212

>  <runtime>  (117) 
45.633672

>  <generation_date>  (117) 
nan

$$$$
mArh-5cms_C_2_C-mArh-5cb5_L_0_L
     RDKit          3D

 43 48  0  0  0  0  0  0  0  0999 V2000
   -1.7290   18.1810   -6.1440 P   0  0  1  0  0  0  0  0  0  0  0  0
   -1.0080   16.8320   -5.6090 O   0  0  0  0  0  0  0  0  0  0  0  0
    0.3720   16.6980   -5.2690 C   0  0  0  0  0  0  0  0  0  0  0  0
   -2.8700   17.8460   -6.9940 O   0  0  0  0  0  0  0  0  0  0  0  0
   -2.1330   18.9050   -4.7830 O   0  0  0  0  0  0  0  0  0  0  0  0
   -0.7310   19.2860   -6.6890 O   0  0  0  0  0  0  0  0  0  0  0  0
   -0.5270   20.0410   -8.0920 P   0  0  1  0  0  0  0  0  0  0  0  0
    0.6790   21.0740   -7.9730 O   0  0  0  0  0  0  0  0  0  0  0  0
   -0.0700   18.7630   -8.9340 O   0  0  0  0  0  0  0  0  0  0  0  0
   -1.8610   20.5830   -8.9570 O   0  0  0  0  0  0  0  0  0  0  0  0
    0.6730   15.3380   -4.5740 C   0  0  1  0  0  0  0  0  0  0  0  0
   -2.4120   21.9470   -9.2110 C   0  0  1  0  0  0  0  0  0  0  0  0
    0.1170   15.3870   -3.2270 O   0  0  0  0  0  0  0  0  0  0  0  0
    0.0180   14.1930   -5.0940 C   0  0  1  0  0  0  0  0  0  0  0  0
    0.9750   13.1270   -5.2040 O   0  0  0  0  0  0  0  0  0  0  0  0
   -0.9970   13.7420   -4.2480 C   0  0  2  0  0  0  0  0  0  0  0  0
   -1.1910   14.8130   -3.3870 C   0  0  1  0  0  0  0  0  0  0  0  0
   -3.6100   22.3660  -10.2200 C   0  0  1  0  0  0  0  0  0  0  0  0
   -3.1490   22.2950   -7.9280 C   0  0  1  0  0  0  0  0  0  0  0  0
   -0.5710   12.5180   -3.6530 O   0  0  0  0  0  0  0  0  0  0  0  0
   -3.4700   23.8440  -10.0410 C   0  0  2  0  0  0  0  0  0  0  0  0
   -3.9420   22.2930  -11.6510 C   0  0  1  0  0  0  0  0  0  0  0  0
   -1.9720   14.8660   -2.1700 N   0  0  0  0  0  0  0  0  0  0  0  0
   -3.7050   23.6270   -7.7930 C   0  0  1  0  0  0  0  0  0  0  0  0
   -4.2530   21.3810   -7.8900 O   0  0  0  0  0  0  0  0  0  0  0  0
   -4.2290   24.2260   -8.9740 O   0  0  0  0  0  0  0  0  0  0  0  0
   -5.2100   21.7860  -11.8830 O   0  0  0  0  0  0  0  0  0  0  0  0
   -3.8840   24.6490  -11.2730 C   0  0  1  0  0  0  0  0  0  0  0  0
   -1.6040   14.8250   -0.8500 C   0  0  0  0  0  0  0  0  0  0  0  0
   -3.3250   15.0200   -2.2240 C   0  0  0  0  0  0  0  0  0  0  0  0
   -5.2920   21.9520   -7.1280 C   0  0  2  0  0  0  0  0  0  0  0  0
   -4.9860   23.4330   -7.0010 C   0  0  2  0  0  0  0  0  0  0  0  0
   -4.3800   23.6350  -12.2330 C   0  0  0  0  0  0  0  0  0  0  0  0
   -4.8520   25.5810  -11.0010 O   0  0  0  0  0  0  0  0  0  0  0  0
   -5.3500   21.3360   -5.8530 O   0  0  0  0  0  0  0  0  0  0  0  0
   -6.1350   24.0860   -7.6000 O   0  0  0  0  0  0  0  0  0  0  0  0
   -2.7850   14.9950   -0.1230 C   0  0  0  0  0  0  0  0  0  0  0  0
   -0.2950   14.6720   -0.2730 N   0  0  0  0  0  0  0  0  0  0  0  0
   -3.8850   15.1100   -0.9230 N   0  0  0  0  0  0  0  0  0  0  0  0
   -2.6910   15.0380    1.2110 C   0  0  0  0  0  0  0  0  0  0  0  0
   -0.3990   14.7150    1.0690 C   0  0  0  0  0  0  0  0  0  0  0  0
   -3.8040   15.2540    1.9840 N   0  0  0  0  0  0  0  0  0  0  0  0
   -1.4990   14.8820    1.8160 N   0  0  0  0  0  0  0  0  0  0  0  0
  1  2  1  0
  2  3  1  0
  1  4  2  0
  1  5  1  1
  1  6  1  0
  6  7  1  0
  7  8  2  0
  7  9  1  6
  7 10  1  0
 11  3  1  6
 12 10  1  1
 11 13  1  0
 11 14  1  0
 14 15  1  1
 14 16  1  0
 13 17  1  0
 16 17  1  0
 12 18  1  0
 12 19  1  0
 16 20  1  1
 18 21  1  0
 18 22  1  6
 17 23  1  1
 19 24  1  0
 19 25  1  6
 21 26  1  1
 24 26  1  6
 22 27  1  1
 21 28  1  0
 23 29  1  0
 23 30  1  0
 25 31  1  0
 24 32  1  0
 31 32  1  0
 22 33  1  0
 28 33  1  0
 28 34  1  1
 31 35  1  1
 32 36  1  6
 29 37  2  0
 29 38  1  0
 30 39  2  0
 37 39  1  0
 37 40  1  0
 38 41  2  0
 40 42  1  0
 40 43  2  0
 41 43  1  0
M  END
>  <%Rank>  (118) 
46.428571

>  <N_hits>  (118) 
2

>  <submitter_name>  (118) 
nan

>  <original SMILES>  (118) 
nan

>  <∆G_unbound>  (118) 
5.842172

>  <∆G_bound>  (118) 
-13.945023

>  <regarded>  (118) 
mArh-5cms_C_2_C,mArh-5cb5_L_0_L

>  <ref_pdb>  (118) 
nan

>  <smiles>  (118) 
Nc1ncnc2c1ncn2C1OC(CO[P@@](=O)(O)O[P@@](=O)(O)OC2C3OC(O)C(O)C3OC3C(O)CC(O)C32)C(O)C1O

>  <submitter_email>  (118) 
nan

>  <disregarded>  (118) 


>  <LE>  (118) 
-0.460167

>  <submitter_institution>  (118) 
nan

>  <ref_mols>  (118) 
mArh-5cms_C_2_C,mArh-5cb5_L_0_L

>  <N_constrained_atoms>  (118) 
40.0

>  <ref_url>  (118) 
nan

>  <method>  (118) 
nan

>  <comRMSD>  (118) 
0.858191

>  <N_unconstrained_atoms>  (118) 
3.0

>  <∆∆G>  (118) 
-19.787195

>  <runtime>  (118) 
33.951267

>  <generation_date>  (118) 
nan

$$$$
mArh-5cb5_F_1_F-mArh-x0969_0_A
     RDKit          3D

 48 53  0  0  0  0  0  0  0  0999 V2000
   -1.6430   18.2370   -5.8840 P   0  0  1  0  0  0  0  0  0  0  0  0
   -0.9620   17.0660   -5.0520 O   0  0  0  0  0  0  0  0  0  0  0  0
    0.4590   16.9930   -5.0920 C   0  0  0  0  0  0  0  0  0  0  0  0
   -2.6720   17.7800   -6.8640 O   0  0  0  0  0  0  0  0  0  0  0  0
   -2.2430   19.2080   -4.7730 O   0  0  0  0  0  0  0  0  0  0  0  0
   -0.4160   19.0540   -6.4390 O   0  0  0  0  0  0  0  0  0  0  0  0
   -0.2680   19.6090   -7.8920 P   0  0  2  0  0  0  0  0  0  0  0  0
   -1.6520   20.2100   -8.3330 O   0  0  0  0  0  0  0  0  0  0  0  0
    0.2620   18.6180   -8.8480 O   0  0  0  0  0  0  0  0  0  0  0  0
    0.7010   20.8820   -7.7700 O   0  0  0  0  0  0  0  0  0  0  0  0
    0.8890   15.6900   -4.4390 C   0  0  1  0  0  0  0  0  0  0  0  0
   -1.9090   21.5860   -8.3260 C   0  0  0  0  0  0  0  0  0  0  0  0
    0.2410   15.5670   -3.1530 O   0  0  0  0  0  0  0  0  0  0  0  0
    0.4930   14.4360   -5.2350 C   0  0  1  0  0  0  0  0  0  0  0  0
    1.4700   13.4080   -5.2020 O   0  0  0  0  0  0  0  0  0  0  0  0
   -0.7800   14.0330   -4.5360 C   0  0  2  0  0  0  0  0  0  0  0  0
   -0.2600   14.2210   -3.1190 C   0  0  2  0  0  0  0  0  0  0  0  0
   -3.1680   21.8070   -9.1460 C   0  0  1  0  0  0  0  0  0  0  0  0
   -1.1130   12.6530   -4.7930 O   0  0  0  0  0  0  0  0  0  0  0  0
   -4.2510   21.0950   -8.5370 O   0  0  0  0  0  0  0  0  0  0  0  0
   -3.6320   23.2350   -9.1960 C   0  0  1  0  0  0  0  0  0  0  0  0
   -1.2750   14.0160   -2.1340 N   0  0  0  0  0  0  0  0  0  0  0  0
   -4.5150   23.5240  -10.2680 O   0  0  0  0  0  0  0  0  0  0  0  0
   -1.0680   14.5950   -0.8350 C   0  0  1  0  0  0  0  0  0  0  0  0
   -4.2390   23.2720   -7.8460 C   0  0  2  0  0  0  0  0  0  0  0  0
   -5.0920   22.0150   -7.8630 C   0  0  2  0  0  0  0  0  0  0  0  0
   -2.6420   14.2970   -2.5870 C   0  0  0  0  0  0  0  0  0  0  0  0
   -5.0090   24.4310   -7.7240 O   0  0  0  0  0  0  0  0  0  0  0  0
   -5.3630   21.5460   -6.5280 O   0  0  0  0  0  0  0  0  0  0  0  0
   -2.4820   14.8370   -0.2940 C   0  0  1  0  0  0  0  0  0  0  0  0
   -0.2800   13.7720    0.0330 N   0  0  0  0  0  0  0  0  0  0  0  0
   -3.4700   14.3420   -1.3040 C   0  0  2  0  0  0  0  0  0  0  0  0
   -5.1770   24.4730   -6.4300 C   0  0  0  0  0  0  0  0  0  0  0  0
   -2.6190   14.8140    1.1940 C   0  0  1  0  0  0  0  0  0  0  0  0
   -0.1200   14.4660    1.2820 C   0  0  0  0  0  0  0  0  0  0  0  0
   -4.3750   13.1560   -1.0140 C   0  0  0  0  0  0  0  0  0  0  0  0
   -4.3150   15.5620   -1.3710 C   0  0  0  0  0  0  0  0  0  0  0  0
   -4.4960   25.6200   -5.7840 C   0  0  0  0  0  0  0  0  0  0  0  0
   -5.7720   23.6010   -5.8930 O   0  0  0  0  0  0  0  0  0  0  0  0
   -3.1190   13.6490    1.8240 N   0  0  0  0  0  0  0  0  0  0  0  0
   -1.3390   15.0630    1.7740 N   0  0  0  0  0  0  0  0  0  0  0  0
   -5.5540   13.4550   -0.0900 C   0  0  2  0  0  0  0  0  0  0  0  0
   -5.2950   15.7340   -0.5260 C   0  0  0  0  0  0  0  0  0  0  0  0
   -6.8730   13.1920   -0.6760 N   0  0  0  0  0  0  0  0  0  0  0  0
   -5.6020   14.8040    0.4320 N   0  0  0  0  0  0  0  0  0  0  0  0
   -6.9710   14.7250    0.9730 C   0  0  1  0  0  0  0  0  0  0  0  0
   -7.6770   13.5260    0.5340 N   0  0  0  0  0  0  0  0  0  0  0  0
   -7.1520   14.7400    2.4120 N   0  0  0  0  0  0  0  0  0  0  0  0
  1  2  1  0
  2  3  1  0
  1  4  2  0
  1  5  1  1
  1  6  1  0
  6  7  1  0
  7  8  1  0
  7  9  2  0
  7 10  1  1
 11  3  1  6
  8 12  1  0
 11 13  1  0
 11 14  1  0
 14 15  1  1
 14 16  1  0
 13 17  1  0
 16 17  1  0
 18 12  1  1
 16 19  1  1
 18 20  1  0
 18 21  1  0
 17 22  1  1
 21 23  1  6
 22 24  1  0
 21 25  1  0
 20 26  1  0
 25 26  1  0
 22 27  1  0
 25 28  1  6
 26 29  1  1
 24 30  1  0
 24 31  1  1
 32 27  1  6
 30 32  1  0
 28 33  1  0
 30 34  1  1
 31 35  1  0
 32 36  1  0
 32 37  1  0
 33 38  1  0
 33 39  2  0
 34 40  1  1
 34 41  1  0
 35 41  1  0
 42 36  1  6
 37 43  2  0
 42 44  1  0
 42 45  1  0
 43 45  1  0
 45 46  1  0
 44 47  1  0
 46 47  1  0
 46 48  1  1
M  END
>  <%Rank>  (119) 
46.825397

>  <N_hits>  (119) 
2

>  <submitter_name>  (119) 
nan

>  <original SMILES>  (119) 
nan

>  <∆G_unbound>  (119) 
5.722082

>  <∆G_bound>  (119) 
-10.040649

>  <regarded>  (119) 
mArh-5cb5_F_1_F,mArh-x0969_0_A

>  <ref_pdb>  (119) 
nan

>  <smiles>  (119) 
CC(=O)OC1C(O)OC(CO[P@@](=O)(O)O[P@](=O)(O)OCC2OC(N3CC4(C=CN5C(N)NNC5C4)C4C(N)NCNC43)C(O)C2O)C1O

>  <submitter_email>  (119) 
nan

>  <disregarded>  (119) 


>  <LE>  (119) 
-0.32839

>  <submitter_institution>  (119) 
nan

>  <ref_mols>  (119) 
mArh-5cb5_F_1_F,mArh-x0969_0_A

>  <N_constrained_atoms>  (119) 
48.0

>  <ref_url>  (119) 
nan

>  <method>  (119) 
nan

>  <comRMSD>  (119) 
0.892037

>  <N_unconstrained_atoms>  (119) 
0.0

>  <∆∆G>  (119) 
-15.762731

>  <runtime>  (119) 
55.316548

>  <generation_date>  (119) 
nan

$$$$
mArh-x0797_0_B-mArh-5cms_B_1_B
     RDKit          3D

 53 58  0  0  0  0  0  0  0  0999 V2000
   -7.9830   29.9790  -14.8420 C   0  0  0  0  0  0  0  0  0  0  0  0
   -6.7380   29.5930  -14.0990 C   0  0  0  0  0  0  0  0  0  0  0  0
   -5.5110   30.1120  -14.5440 C   0  0  0  0  0  0  0  0  0  0  0  0
   -6.7750   28.6630  -12.8940 C   0  0  0  0  0  0  0  0  0  0  0  0
   -5.4620   28.3420  -12.2090 C   0  0  0  0  0  0  0  0  0  0  0  0
   -4.3010   29.8110  -13.9170 C   0  0  0  0  0  0  0  0  0  0  0  0
   -8.0720   28.0650  -12.3870 C   0  0  1  0  0  0  0  0  0  0  0  0
   -4.2800   28.8820  -12.6870 C   0  0  0  0  0  0  0  0  0  0  0  0
   -8.2420   26.5610  -12.6280 C   0  0  1  0  0  0  0  0  0  0  0  0
   -8.2120   28.2020  -11.0020 C   0  0  0  0  0  0  0  0  0  0  0  0
   -7.5910   25.9720  -13.8520 C   0  0  0  0  0  0  0  0  0  0  0  0
   -8.0490   26.9320  -10.3350 O   0  0  0  0  0  0  0  0  0  0  0  0
   -7.7370   25.9520  -11.3080 C   0  0  0  0  0  0  0  0  0  0  0  0
   -8.0630   26.3740  -14.9140 O   0  0  0  0  0  0  0  0  0  0  0  0
   -6.6340   25.1270  -13.9970 N   0  0  0  0  0  0  0  0  0  0  0  0
   -5.9020   24.4880  -12.8960 C   0  0  0  0  0  0  0  0  0  0  0  0
   -5.2260   23.2080  -13.3620 C   0  0  0  0  0  0  0  0  0  0  0  0
   -4.1260   22.9090  -12.4980 O   0  0  0  0  0  0  0  0  0  0  0  0
   -4.4990   22.8880  -11.1080 C   0  0  2  0  0  0  0  0  0  0  0  0
   -4.3330   24.1970  -10.3960 C   0  0  2  0  0  0  0  0  0  0  0  0
   -3.5880   22.0400  -10.2370 C   0  0  2  0  0  0  0  0  0  0  0  0
   -3.4080   24.9770  -11.1050 O   0  0  0  0  0  0  0  0  0  0  0  0
   -4.4380   21.3470   -9.4010 O   0  0  0  0  0  0  0  0  0  0  0  0
   -2.9110   22.8970   -9.2280 C   0  0  1  0  0  0  0  0  0  0  0  0
   -3.9030   23.9310   -9.0320 O   0  0  0  0  0  0  0  0  0  0  0  0
   -2.3780   22.0220   -8.0820 C   0  0  0  0  0  0  0  0  0  0  0  0
   -1.7330   20.8280   -8.6600 O   0  0  0  0  0  0  0  0  0  0  0  0
   -0.5930   20.0190   -7.8670 P   0  0  2  0  0  0  0  0  0  0  0  0
    0.7140   20.7130   -7.7530 O   0  0  0  0  0  0  0  0  0  0  0  0
   -0.3950   18.6440   -8.6880 O   0  0  0  0  0  0  0  0  0  0  0  0
   -1.2330   19.5410   -6.5240 O   0  0  0  0  0  0  0  0  0  0  0  0
   -1.6090   18.0750   -6.1150 P   0  0  2  0  0  0  0  0  0  0  0  0
   -0.2620   17.2090   -6.1650 O   0  0  0  0  0  0  0  0  0  0  0  0
   -2.7620   17.4550   -6.8020 O   0  0  0  0  0  0  0  0  0  0  0  0
   -1.8550   18.2240   -4.5640 O   0  0  0  0  0  0  0  0  0  0  0  0
    0.4160   16.7610   -4.9900 C   0  0  0  0  0  0  0  0  0  0  0  0
   -0.3660   15.6330   -4.3110 C   0  0  2  0  0  0  0  0  0  0  0  0
    0.2020   15.3110   -3.0140 O   0  0  0  0  0  0  0  0  0  0  0  0
   -0.4380   14.2690   -5.0130 C   0  0  1  0  0  0  0  0  0  0  0  0
    0.8390   13.8340   -5.4750 O   0  0  0  0  0  0  0  0  0  0  0  0
   -0.8810   13.4950   -3.9650 C   0  0  2  0  0  0  0  0  0  0  0  0
   -0.4970   14.1020   -2.6060 C   0  0  2  0  0  0  0  0  0  0  0  0
   -0.2520   12.1990   -4.0920 O   0  0  0  0  0  0  0  0  0  0  0  0
   -1.5330   14.4960   -1.6720 N   0  0  0  0  0  0  0  0  0  0  0  0
   -1.4150   14.7780   -0.3360 C   0  0  0  0  0  0  0  0  0  0  0  0
   -2.8630   14.6650   -2.0000 C   0  0  0  0  0  0  0  0  0  0  0  0
   -2.7050   15.1130    0.0770 C   0  0  0  0  0  0  0  0  0  0  0  0
   -0.3080   14.7500    0.4260 N   0  0  0  0  0  0  0  0  0  0  0  0
   -3.5950   15.0340   -0.9700 N   0  0  0  0  0  0  0  0  0  0  0  0
   -2.8630   15.4660    1.4320 C   0  0  0  0  0  0  0  0  0  0  0  0
   -0.5890   15.1050    1.6980 C   0  0  0  0  0  0  0  0  0  0  0  0
   -4.0880   15.8310    1.9780 N   0  0  0  0  0  0  0  0  0  0  0  0
   -1.7760   15.4560    2.2370 N   0  0  0  0  0  0  0  0  0  0  0  0
  1  2  1  0
  2  3  2  0
  2  4  1  0
  4  5  2  0
  3  6  1  0
  7  4  1  1
  5  8  1  0
  6  8  2  0
  7  9  1  0
  7 10  1  0
  9 11  1  6
 10 12  1  0
  9 13  1  0
 12 13  1  0
 11 14  1  0
 11 15  2  3
 15 16  1  0
 16 17  1  0
 17 18  1  0
 19 18  1  6
 19 20  1  0
 19 21  1  0
 20 22  1  6
 21 23  1  1
 21 24  1  0
 20 25  1  0
 24 25  1  0
 24 26  1  1
 26 27  1  0
 27 28  1  0
 28 29  2  0
 28 30  1  6
 28 31  1  0
 31 32  1  0
 32 33  1  0
 32 34  2  0
 32 35  1  1
 33 36  1  0
 37 36  1  6
 37 38  1  0
 37 39  1  0
 39 40  1  1
 39 41  1  0
 38 42  1  0
 41 42  1  0
 41 43  1  6
 42 44  1  1
 44 45  1  0
 44 46  1  0
 45 47  2  0
 45 48  1  0
 46 49  2  0
 47 49  1  0
 47 50  1  0
 48 51  2  0
 50 52  1  0
 50 53  2  0
 51 53  1  0
M  END
>  <%Rank>  (120) 
47.222222

>  <N_hits>  (120) 
2

>  <submitter_name>  (120) 
nan

>  <original SMILES>  (120) 
nan

>  <∆G_unbound>  (120) 
4.30445

>  <∆G_bound>  (120) 
-9.599663

>  <regarded>  (120) 
mArh-x0797_0_B,mArh-5cms_B_1_B

>  <ref_pdb>  (120) 
nan

>  <smiles>  (120) 
Cc1ccccc1C1COCC1C(O)=NCCOC1C(O)OC(CO[P@](=O)(O)O[P@](=O)(O)OCC2OC(n3cnc4c(N)ncnc43)C(O)C2O)C1O

>  <submitter_email>  (120) 
nan

>  <disregarded>  (120) 


>  <LE>  (120) 
-0.262342

>  <submitter_institution>  (120) 
nan

>  <ref_mols>  (120) 
mArh-x0797_0_B,mArh-5cms_B_1_B

>  <N_constrained_atoms>  (120) 
51.0

>  <ref_url>  (120) 
nan

>  <method>  (120) 
nan

>  <comRMSD>  (120) 
0.860612

>  <N_unconstrained_atoms>  (120) 
2.0

>  <∆∆G>  (120) 
-13.904114

>  <runtime>  (120) 
37.337752

>  <generation_date>  (120) 
nan

$$$$
mArh-x0950_0_A-mArh-x0727_0_A
     RDKit          3D

 13 13  0  0  0  0  0  0  0  0999 V2000
    0.8790   13.8690   -4.9180 C   0  0  0  0  0  0  0  0  0  0  0  0
    1.1100   12.3920   -4.6330 C   0  0  2  0  0  0  0  0  0  0  0  0
    0.2130   11.6010   -5.4630 O   0  0  0  0  0  0  0  0  0  0  0  0
    0.8730   12.1100   -3.1450 C   0  0  0  0  0  0  0  0  0  0  0  0
    0.3570   11.0920   -2.7230 O   0  0  0  0  0  0  0  0  0  0  0  0
    1.2930   13.1060   -2.3290 O   0  0  0  0  0  0  0  0  0  0  0  0
    0.7630   11.2580   -6.6680 C   0  0  0  0  0  0  0  0  0  0  0  0
    1.6960   11.8580   -7.1180 O   0  0  0  0  0  0  0  0  0  0  0  0
    0.1070   10.0430   -7.3430 C   0  0  0  0  0  0  0  0  0  0  0  0
   -1.1920   10.5360   -8.0390 C   0  0  0  0  0  0  0  0  0  0  0  0
   -0.3380    8.9290   -6.3780 C   0  0  0  0  0  0  0  0  0  0  0  0
   -2.1270    9.3390   -7.9510 C   0  0  0  0  0  0  0  0  0  0  0  0
   -1.8260    8.6780   -6.5960 C   0  0  0  0  0  0  0  0  0  0  0  0
  2  1  1  1
  2  3  1  0
  2  4  1  0
  4  5  2  0
  4  6  1  0
  3  7  1  0
  7  8  2  0
  7  9  1  0
  9 10  1  0
  9 11  1  0
 10 12  1  0
 11 13  1  0
 12 13  1  0
M  END
>  <%Rank>  (121) 
47.619048

>  <N_hits>  (121) 
2

>  <submitter_name>  (121) 
nan

>  <original SMILES>  (121) 
nan

>  <∆G_unbound>  (121) 
0.732546

>  <∆G_bound>  (121) 
-1.756521

>  <regarded>  (121) 
mArh-x0950_0_A,mArh-x0727_0_A

>  <ref_pdb>  (121) 
nan

>  <smiles>  (121) 
C[C@H](OC(=O)C1CCCC1)C(=O)O

>  <submitter_email>  (121) 
nan

>  <disregarded>  (121) 


>  <LE>  (121) 
-0.191467

>  <submitter_institution>  (121) 
nan

>  <ref_mols>  (121) 
mArh-x0950_0_A,mArh-x0727_0_A

>  <N_constrained_atoms>  (121) 
13.0

>  <ref_url>  (121) 
nan

>  <method>  (121) 
nan

>  <comRMSD>  (121) 
0.358917

>  <N_unconstrained_atoms>  (121) 
0.0

>  <∆∆G>  (121) 
-2.489067

>  <runtime>  (121) 
15.25502

>  <generation_date>  (121) 
nan

$$$$
mArh-x0905_1_B-mArh-x0814_0_B
     RDKit          3D

 24 25  0  0  0  0  0  0  0  0999 V2000
   14.1210   19.3990   11.8420 O   0  0  0  0  0  0  0  0  0  0  0  0
   13.1610   20.1290   12.5650 C   0  0  1  0  0  0  0  0  0  0  0  0
   12.9300   19.4940   13.8790 N   0  0  0  0  0  0  0  0  0  0  0  0
   13.6770   21.5760   12.6490 C   0  0  0  0  0  0  0  0  0  0  0  0
   13.1500   18.0110   14.0240 C   0  0  0  0  0  0  0  0  0  0  0  0
   12.0590   20.2140   14.6470 C   0  0  0  0  0  0  0  0  0  0  0  0
   13.1040   22.2980   13.6550 C   0  0  0  0  0  0  0  0  0  0  0  0
   14.5270   17.4390   13.6110 C   0  0  0  0  0  0  0  0  0  0  0  0
   12.1180   21.7370   14.5510 C   0  0  0  0  0  0  0  0  0  0  0  0
   14.6560   15.9180   13.3700 C   0  0  0  0  0  0  0  0  0  0  0  0
   15.7960   15.6550   12.4760 N   0  0  0  0  0  0  0  0  0  0  0  0
   16.1940   14.5250   11.9340 C   0  0  0  0  0  0  0  0  0  0  0  0
   17.3120   14.5200   11.1460 N   0  0  0  0  0  0  0  0  0  0  0  0
   15.4650   13.1460   12.1580 C   0  0  2  0  0  0  0  0  0  0  0  0
   15.3210   12.2740   11.0880 C   0  0  0  0  0  0  0  0  0  0  0  0
   14.1880   13.2290   13.0190 C   0  0  2  0  0  0  0  0  0  0  0  0
   14.6230   13.4080   14.4710 C   0  0  0  0  0  0  0  0  0  0  0  0
   13.2600   12.0370   12.8960 N   0  0  0  0  0  0  0  0  0  0  0  0
   14.0310   11.9590   10.6640 C   0  0  0  0  0  0  0  0  0  0  0  0
   11.6740   12.3930   13.2380 S   0  0  0  0  0  0  0  0  0  0  0  0
   13.3890   11.1490   11.7360 C   0  0  0  0  0  0  0  0  0  0  0  0
   11.5760   13.8070   12.9510 O   0  0  0  0  0  0  0  0  0  0  0  0
   10.7800   11.4220   12.6110 O   0  0  0  0  0  0  0  0  0  0  0  0
   11.6920   12.0910   14.9960 C   0  0  0  0  0  0  0  0  0  0  0  0
  2  1  1  1
  2  3  1  0
  2  4  1  0
  3  5  1  0
  3  6  1  0
  4  7  2  0
  5  8  1  0
  6  9  2  0
  7  9  1  0
  8 10  1  0
 10 11  1  0
 11 12  2  3
 12 13  1  0
 14 12  1  6
 14 15  1  0
 14 16  1  0
 16 17  1  1
 16 18  1  0
 15 19  1  0
 18 20  1  0
 18 21  1  0
 19 21  1  0
 20 22  2  0
 20 23  2  0
 20 24  1  0
M  END
>  <%Rank>  (122) 
48.015873

>  <N_hits>  (122) 
2

>  <submitter_name>  (122) 
nan

>  <original SMILES>  (122) 
nan

>  <∆G_unbound>  (122) 
1.285852

>  <∆G_bound>  (122) 
-6.888771

>  <regarded>  (122) 
mArh-x0905_1_B,mArh-x0814_0_B

>  <ref_pdb>  (122) 
nan

>  <smiles>  (122) 
CC1C(C(N)=NCCCN2C=CC=CC2O)CCCN1S(C)(=O)=O

>  <submitter_email>  (122) 
nan

>  <disregarded>  (122) 


>  <LE>  (122) 
-0.340609

>  <submitter_institution>  (122) 
nan

>  <ref_mols>  (122) 
mArh-x0905_1_B,mArh-x0814_0_B

>  <N_constrained_atoms>  (122) 
21.0

>  <ref_url>  (122) 
nan

>  <method>  (122) 
nan

>  <comRMSD>  (122) 
0.544131

>  <N_unconstrained_atoms>  (122) 
3.0

>  <∆∆G>  (122) 
-8.174623

>  <runtime>  (122) 
27.613467

>  <generation_date>  (122) 
nan

$$$$
mArh-x0918_0_B-mArh-5cb5_M_1_M
     RDKit          3D

 48 52  0  0  0  0  0  0  0  0999 V2000
   -2.8770   23.4470  -12.8920 N   0  0  0  0  0  0  0  0  0  0  0  0
   -3.6010   24.5360  -13.2940 C   0  0  0  0  0  0  0  0  0  0  0  0
   -3.3710   24.9980  -14.5710 C   0  0  0  0  0  0  0  0  0  0  0  0
   -4.5220   25.1560  -12.4850 C   0  0  0  0  0  0  0  0  0  0  0  0
   -5.1820   26.2400  -13.0460 C   0  0  0  0  0  0  0  0  0  0  0  0
   -4.0620   26.0760  -15.0370 C   0  0  0  0  0  0  0  0  0  0  0  0
   -4.7960   24.6980  -11.0850 C   0  0  0  0  0  0  0  0  0  0  0  0
   -4.9750   26.7130  -14.2990 N   0  0  0  0  0  0  0  0  0  0  0  0
   -5.2600   23.2580  -10.9080 C   0  0  0  0  0  0  0  0  0  0  0  0
   -5.4350   22.9480   -9.5080 O   0  0  0  0  0  0  0  0  0  0  0  0
   -4.3460   22.9720   -8.5520 C   0  0  1  0  0  0  0  0  0  0  0  0
   -4.8290   23.0730   -7.1340 C   0  0  1  0  0  0  0  0  0  0  0  0
   -3.7320   21.5750   -8.4210 C   0  0  1  0  0  0  0  0  0  0  0  0
   -5.8700   24.0380   -7.0640 O   0  0  0  0  0  0  0  0  0  0  0  0
   -2.4190   21.4080   -7.6490 C   0  0  0  0  0  0  0  0  0  0  0  0
   -5.5010   21.7120   -7.0470 C   0  0  1  0  0  0  0  0  0  0  0  0
   -4.7220   20.7870   -7.7780 O   0  0  0  0  0  0  0  0  0  0  0  0
   -1.5810   20.5680   -8.4250 O   0  0  0  0  0  0  0  0  0  0  0  0
   -6.5340   24.0450   -8.2510 C   0  0  0  0  0  0  0  0  0  0  0  0
   -5.6430   21.3100   -5.7160 O   0  0  0  0  0  0  0  0  0  0  0  0
   -0.3330   19.8460   -7.7890 P   0  0  2  0  0  0  0  0  0  0  0  0
   -6.3450   25.3120   -8.9660 C   0  0  0  0  0  0  0  0  0  0  0  0
   -7.1730   23.1290   -8.7120 O   0  0  0  0  0  0  0  0  0  0  0  0
    0.0650   18.6510   -8.5870 O   0  0  0  0  0  0  0  0  0  0  0  0
   -0.9290   19.6910   -6.3670 O   0  0  0  0  0  0  0  0  0  0  0  0
    0.7850   20.9570   -7.6540 O   0  0  0  0  0  0  0  0  0  0  0  0
   -1.5240   18.3130   -6.0790 P   0  0  2  0  0  0  0  0  0  0  0  0
   -0.2570   17.4140   -6.3940 O   0  0  0  0  0  0  0  0  0  0  0  0
   -2.7520   17.9440   -6.8080 O   0  0  0  0  0  0  0  0  0  0  0  0
   -1.7280   18.3290   -4.4990 O   0  0  0  0  0  0  0  0  0  0  0  0
    0.5590   16.9040   -5.3690 C   0  0  0  0  0  0  0  0  0  0  0  0
   -0.2370   15.7910   -4.7750 C   0  0  2  0  0  0  0  0  0  0  0  0
   -0.3910   15.8960   -3.3570 O   0  0  0  0  0  0  0  0  0  0  0  0
    0.0270   14.3100   -5.0960 C   0  0  1  0  0  0  0  0  0  0  0  0
    1.3320   13.8290   -4.8110 O   0  0  0  0  0  0  0  0  0  0  0  0
   -0.9810   13.7420   -4.1010 C   0  0  2  0  0  0  0  0  0  0  0  0
   -1.5020   15.0150   -3.2980 C   0  0  1  0  0  0  0  0  0  0  0  0
   -0.3130   12.7590   -3.3020 O   0  0  0  0  0  0  0  0  0  0  0  0
   -2.1780   15.0350   -2.0310 N   0  0  0  0  0  0  0  0  0  0  0  0
   -1.6540   14.9600   -0.7620 C   0  0  0  0  0  0  0  0  0  0  0  0
   -3.5300   15.1470   -1.9180 C   0  0  0  0  0  0  0  0  0  0  0  0
   -2.7770   15.0270    0.0540 C   0  0  0  0  0  0  0  0  0  0  0  0
   -0.3710   14.8460   -0.3640 N   0  0  0  0  0  0  0  0  0  0  0  0
   -3.9300   15.1470   -0.6780 N   0  0  0  0  0  0  0  0  0  0  0  0
   -2.5760   14.9630    1.4250 C   0  0  0  0  0  0  0  0  0  0  0  0
   -0.3040   14.7900    0.9840 C   0  0  0  0  0  0  0  0  0  0  0  0
   -3.6800   15.0270    2.3920 N   0  0  0  0  0  0  0  0  0  0  0  0
   -1.3110   14.8340    1.8770 N   0  0  0  0  0  0  0  0  0  0  0  0
  1  2  1  0
  2  3  2  0
  2  4  1  0
  4  5  2  0
  3  6  1  0
  4  7  1  0
  5  8  1  0
  6  8  2  0
  7  9  1  0
  9 10  1  0
 11 10  1  6
 11 12  1  0
 11 13  1  0
 12 14  1  6
 13 15  1  1
 12 16  1  0
 13 17  1  0
 16 17  1  0
 15 18  1  0
 14 19  1  0
 16 20  1  1
 18 21  1  0
 19 22  1  0
 19 23  2  0
 21 24  2  0
 21 25  1  0
 21 26  1  1
 25 27  1  0
 27 28  1  0
 27 29  2  0
 27 30  1  1
 28 31  1  0
 32 31  1  1
 32 33  1  0
 32 34  1  0
 34 35  1  1
 34 36  1  0
 33 37  1  0
 36 37  1  0
 36 38  1  1
 37 39  1  1
 39 40  1  0
 39 41  1  0
 40 42  2  0
 40 43  1  0
 41 44  2  0
 42 44  1  0
 42 45  1  0
 43 46  2  0
 45 47  1  0
 45 48  2  0
 46 48  1  0
M  END
>  <%Rank>  (123) 
48.412698

>  <N_hits>  (123) 
2

>  <submitter_name>  (123) 
nan

>  <original SMILES>  (123) 
nan

>  <∆G_unbound>  (123) 
7.474662

>  <∆G_bound>  (123) 
-11.505711

>  <regarded>  (123) 
mArh-x0918_0_B,mArh-5cb5_M_1_M

>  <ref_pdb>  (123) 
nan

>  <smiles>  (123) 
CC(=O)OC1C(O)OC(CO[P@@](=O)(O)O[P@](=O)(O)OCC2OC(n3cnc4c(N)ncnc43)C(O)C2O)C1OCCc1cnccc1N

>  <submitter_email>  (123) 
nan

>  <disregarded>  (123) 


>  <LE>  (123) 
-0.395424

>  <submitter_institution>  (123) 
nan

>  <ref_mols>  (123) 
mArh-x0918_0_B,mArh-5cb5_M_1_M

>  <N_constrained_atoms>  (123) 
46.0

>  <ref_url>  (123) 
nan

>  <method>  (123) 
nan

>  <comRMSD>  (123) 
0.899338

>  <N_unconstrained_atoms>  (123) 
2.0

>  <∆∆G>  (123) 
-18.980373

>  <runtime>  (123) 
46.332188

>  <generation_date>  (123) 
nan

$$$$
mArh-5fud_B_0_B-mArh-x0685_0_A
     RDKit          3D

 28 29  0  0  0  0  0  0  0  0999 V2000
   -0.8780   20.1620   -6.3080 O   0  0  0  0  0  0  0  0  0  0  0  0
   -0.7130   20.2030   -7.7270 S   0  0  0  0  0  0  0  0  0  0  0  0
    0.4720   20.7010   -8.3510 O   0  0  0  0  0  0  0  0  0  0  0  0
   -1.0010   18.6820   -8.1280 O   0  0  0  0  0  0  0  0  0  0  0  0
   -2.1580   20.9660   -8.3540 C   0  0  0  0  0  0  0  0  0  0  0  0
   -2.3230   22.3630   -7.9060 C   0  0  0  0  0  0  0  0  0  0  0  0
   -1.3800   18.1150   -6.8660 C   0  0  0  0  0  0  0  0  0  0  0  0
   -0.1280   17.8850   -6.0260 C   0  0  0  0  0  0  0  0  0  0  0  0
   -3.7370   22.6500   -7.8770 N   0  0  0  0  0  0  0  0  0  0  0  0
   -0.4550   17.4230   -4.6140 C   0  0  0  0  0  0  0  0  0  0  0  0
   -4.3480   22.7930   -9.2100 C   0  0  0  0  0  0  0  0  0  0  0  0
   -4.0100   23.8090   -7.0840 C   0  0  0  0  0  0  0  0  0  0  0  0
   -0.7060   15.9110   -4.5030 C   0  0  0  0  0  0  0  0  0  0  0  0
   -5.8690   22.9620   -9.1460 C   0  0  0  0  0  0  0  0  0  0  0  0
   -5.5030   23.8760   -6.9380 C   0  0  0  0  0  0  0  0  0  0  0  0
   -2.1800   15.5010   -4.6670 C   0  0  0  0  0  0  0  0  0  0  0  0
   -6.2590   23.9230   -8.1610 O   0  0  0  0  0  0  0  0  0  0  0  0
   -2.8760   15.2780   -3.3900 C   0  0  0  0  0  0  0  0  0  0  0  0
   -3.4420   15.1600   -2.3370 C   0  0  0  0  0  0  0  0  0  0  0  0
   -4.1180   15.0990   -1.0850 C   0  0  0  0  0  0  0  0  0  0  0  0
   -3.4220   15.1570    0.1160 C   0  0  0  0  0  0  0  0  0  0  0  0
   -5.4960   14.9860   -1.0290 C   0  0  0  0  0  0  0  0  0  0  0  0
   -4.1340   15.1090    1.3090 C   0  0  0  0  0  0  0  0  0  0  0  0
   -6.2080   14.9320    0.1180 N   0  0  0  0  0  0  0  0  0  0  0  0
   -5.5230   14.9990    1.2690 C   0  0  0  0  0  0  0  0  0  0  0  0
   -6.2870   14.9570    2.4360 N   0  0  0  0  0  0  0  0  0  0  0  0
   -7.7290   14.8030    2.3930 C   0  0  0  0  0  0  0  0  0  0  0  0
   -8.1120   13.4880    3.0530 C   0  0  0  0  0  0  0  0  0  0  0  0
  1  2  2  0
  2  3  2  0
  2  4  1  0
  2  5  1  0
  5  6  1  0
  4  7  1  0
  7  8  1  0
  6  9  1  0
  8 10  1  0
  9 11  1  0
  9 12  1  0
 10 13  1  0
 11 14  1  0
 12 15  1  0
 13 16  1  0
 14 17  1  0
 15 17  1  0
 16 18  1  0
 18 19  3  0
 19 20  1  0
 20 21  2  0
 20 22  1  0
 21 23  1  0
 22 24  2  0
 23 25  2  0
 24 25  1  0
 25 26  1  0
 26 27  1  0
 27 28  1  0
M  END
>  <%Rank>  (124) 
48.809524

>  <N_hits>  (124) 
2

>  <submitter_name>  (124) 
nan

>  <original SMILES>  (124) 
nan

>  <∆G_unbound>  (124) 
0.098233

>  <∆G_bound>  (124) 
-10.806231

>  <regarded>  (124) 
mArh-5fud_B_0_B,mArh-x0685_0_A

>  <ref_pdb>  (124) 
nan

>  <smiles>  (124) 
CCNc1ccc(C#CCCCCCOS(=O)(=O)CCN2CCOCC2)cn1

>  <submitter_email>  (124) 
nan

>  <disregarded>  (124) 


>  <LE>  (124) 
-0.389445

>  <submitter_institution>  (124) 
nan

>  <ref_mols>  (124) 
mArh-5fud_B_0_B,mArh-x0685_0_A

>  <N_constrained_atoms>  (124) 
23.0

>  <ref_url>  (124) 
nan

>  <method>  (124) 
nan

>  <comRMSD>  (124) 
0.572136

>  <N_unconstrained_atoms>  (124) 
5.0

>  <∆∆G>  (124) 
-10.904464

>  <runtime>  (124) 
42.984722

>  <generation_date>  (124) 
nan

$$$$
mArh-5cms_D_3_D-mArh-5cb5_M_1_M
     RDKit          3D

 39 42  0  0  0  0  0  0  0  0999 V2000
   -1.6990   18.0490   -6.3350 P   0  0  0  0  0  0  0  0  0  0  0  0
   -0.8320   16.7440   -5.7940 O   0  0  0  0  0  0  0  0  0  0  0  0
    0.3010   16.9560   -5.0610 C   0  0  0  0  0  0  0  0  0  0  0  0
   -2.9470   17.1520   -6.2120 O   0  0  0  0  0  0  0  0  0  0  0  0
   -2.2700   19.0930   -5.1810 O   0  0  0  0  0  0  0  0  0  0  0  0
   -0.5270   19.0050   -6.6450 O   0  0  0  0  0  0  0  0  0  0  0  0
   -0.3550   19.8770   -7.9280 P   0  0  0  0  0  0  0  0  0  0  0  0
   -1.7970   20.5780   -7.7720 O   0  0  0  0  0  0  0  0  0  0  0  0
   -0.1460   18.4880   -8.7990 O   0  0  0  0  0  0  0  0  0  0  0  0
    1.0270   20.6500   -7.4020 O   0  0  0  0  0  0  0  0  0  0  0  0
    0.7290   15.7870   -4.1690 C   0  0  1  0  0  0  0  0  0  0  0  0
   -2.0950   21.8860   -8.0630 C   0  0  0  0  0  0  0  0  0  0  0  0
    0.0140   15.6600   -2.9620 O   0  0  0  0  0  0  0  0  0  0  0  0
    0.5690   14.3470   -4.6620 C   0  0  2  0  0  0  0  0  0  0  0  0
    1.0080   14.1040   -5.9400 O   0  0  0  0  0  0  0  0  0  0  0  0
   -1.2140   15.0610   -3.3740 C   0  0  1  0  0  0  0  0  0  0  0  0
   -0.9190   14.1510   -4.5200 C   0  0  2  0  0  0  0  0  0  0  0  0
   -3.4260   21.8170   -8.8140 C   0  0  1  0  0  0  0  0  0  0  0  0
   -1.1130   12.7940   -4.2270 O   0  0  0  0  0  0  0  0  0  0  0  0
   -2.0500   14.5330   -2.3520 N   0  0  0  0  0  0  0  0  0  0  0  0
   -4.1690   21.0620   -7.9640 O   0  0  0  0  0  0  0  0  0  0  0  0
   -4.3430   22.9890   -8.9390 C   0  0  2  0  0  0  0  0  0  0  0  0
   -3.8120   24.1220   -9.5020 O   0  0  0  0  0  0  0  0  0  0  0  0
   -1.6890   14.3220   -0.9620 C   0  0  2  0  0  0  0  0  0  0  0  0
   -3.4690   14.7120   -2.4040 C   0  0  0  0  0  0  0  0  0  0  0  0
   -4.7430   23.2110   -7.5110 C   0  0  2  0  0  0  0  0  0  0  0  0
   -5.1540   21.7970   -7.3290 C   0  0  2  0  0  0  0  0  0  0  0  0
   -5.8220   24.1080   -7.4320 O   0  0  0  0  0  0  0  0  0  0  0  0
   -5.2610   21.4820   -5.9610 O   0  0  0  0  0  0  0  0  0  0  0  0
   -2.9490   14.9550   -0.3040 C   0  0  1  0  0  0  0  0  0  0  0  0
   -0.5090   14.9220   -0.4590 N   0  0  0  0  0  0  0  0  0  0  0  0
   -3.9140   14.3020   -1.0660 N   0  0  0  0  0  0  0  0  0  0  0  0
   -6.8010   23.9380   -8.4020 C   0  0  0  0  0  0  0  0  0  0  0  0
   -2.9170   14.7330    1.1660 C   0  0  2  0  0  0  0  0  0  0  0  0
   -0.4990   14.7190    0.9610 C   0  0  0  0  0  0  0  0  0  0  0  0
   -3.9660   15.5620    1.7500 N   0  0  0  0  0  0  0  0  0  0  0  0
   -7.6820   24.9600   -9.0210 C   0  0  0  0  0  0  0  0  0  0  0  0
   -7.0160   22.7790   -8.8190 O   0  0  0  0  0  0  0  0  0  0  0  0
   -1.6500   15.3110    1.5880 N   0  0  0  0  0  0  0  0  0  0  0  0
  1  2  1  0
  2  3  1  0
  1  4  1  0
  1  5  1  0
  1  6  1  0
  6  7  1  0
  7  8  1  0
  7  9  1  0
  7 10  1  0
 11  3  1  6
  8 12  1  0
 11 13  1  0
 11 14  1  0
 14 15  1  6
 13 16  1  0
 14 17  1  0
 16 17  1  0
 18 12  1  1
 17 19  1  1
 16 20  1  1
 18 21  1  0
 18 22  1  0
 22 23  1  1
 20 24  1  0
 20 25  1  0
 22 26  1  0
 21 27  1  0
 26 27  1  0
 26 28  1  6
 27 29  1  1
 24 30  1  0
 24 31  1  1
 25 32  1  0
 30 32  1  6
 28 33  1  0
 30 34  1  0
 31 35  1  0
 34 36  1  1
 33 37  1  0
 33 38  2  0
 34 39  1  0
 35 39  1  0
M  CHG  2   4  -1   9  -1
M  END
>  <%Rank>  (125) 
49.206349

>  <N_hits>  (125) 
2

>  <submitter_name>  (125) 
nan

>  <original SMILES>  (125) 
nan

>  <∆G_unbound>  (125) 
3.469187

>  <∆G_bound>  (125) 
-6.778874

>  <regarded>  (125) 
mArh-5cms_D_3_D,mArh-5cb5_M_1_M

>  <ref_pdb>  (125) 
nan

>  <smiles>  (125) 
CC(=O)OC1C(O)OC(CO[PH]([O-])(O)O[PH]([O-])(O)OCC2OC(N3CNC4C(N)NCNC43)C(O)C2O)C1O

>  <submitter_email>  (125) 
nan

>  <disregarded>  (125) 


>  <LE>  (125) 
-0.262771

>  <submitter_institution>  (125) 
nan

>  <ref_mols>  (125) 
mArh-5cms_D_3_D,mArh-5cb5_M_1_M

>  <N_constrained_atoms>  (125) 
39.0

>  <ref_url>  (125) 
nan

>  <method>  (125) 
nan

>  <comRMSD>  (125) 
0.809369

>  <N_unconstrained_atoms>  (125) 
0.0

>  <∆∆G>  (125) 
-10.248061

>  <runtime>  (125) 
45.951812

>  <generation_date>  (125) 
nan

$$$$
mArh-5cms_N_13_N-mArh-6woj_B_0_B
     RDKit          3D

 46 51  0  0  0  0  0  0  0  0999 V2000
   -1.6170   18.2260   -6.1870 P   0  0  1  0  0  0  0  0  0  0  0  0
   -0.2640   17.3110   -6.5900 O   0  0  0  0  0  0  0  0  0  0  0  0
    0.7790   17.0660   -5.7140 C   0  0  1  0  0  0  0  0  0  0  0  0
   -2.8170   17.6530   -6.8720 O   0  0  0  0  0  0  0  0  0  0  0  0
   -1.8710   18.0240   -4.5580 O   0  0  0  0  0  0  0  0  0  0  0  0
   -1.5550   19.8590   -6.5350 O   0  0  0  0  0  0  0  0  0  0  0  0
   -0.8290   20.1100   -8.0860 P   0  0  0  0  0  0  0  0  0  0  0  0
    0.7160   20.9000   -7.8410 N   0  0  0  0  0  0  0  0  0  0  0  0
   -0.4350   18.5820   -8.7440 O   0  0  0  0  0  0  0  0  0  0  0  0
   -1.9020   21.0250   -9.2100 O   0  0  0  0  0  0  0  0  0  0  0  0
    0.8490   18.1610   -4.6810 C   0  0  0  0  0  0  0  0  0  0  0  0
    0.8220   15.7180   -4.9920 C   0  0  1  0  0  0  0  0  0  0  0  0
   -2.5110   22.2300   -8.8160 C   0  0  1  0  0  0  0  0  0  0  0  0
    0.8120   22.0210   -7.5420 O   0  0  0  0  0  0  0  0  0  0  0  0
    0.2920   15.9240   -3.7470 O   0  0  0  0  0  0  0  0  0  0  0  0
    0.0670   14.5250   -5.4920 C   0  0  1  0  0  0  0  0  0  0  0  0
    0.7820   13.7860   -6.4080 O   0  0  0  0  0  0  0  0  0  0  0  0
    0.0630   13.6540   -4.3340 C   0  0  0  0  0  0  0  0  0  0  0  0
    0.1140   14.6670   -3.1740 C   0  0  2  0  0  0  0  0  0  0  0  0
   -3.3100   23.0530   -9.8910 C   0  0  2  0  0  0  0  0  0  0  0  0
   -3.6750   22.1570   -7.9610 C   0  0  2  0  0  0  0  0  0  0  0  0
    1.1420   12.7910   -4.3580 O   0  0  0  0  0  0  0  0  0  0  0  0
   -1.0760   12.8760   -4.4090 O   0  0  0  0  0  0  0  0  0  0  0  0
   -4.4840   23.9340   -9.6130 C   0  0  2  0  0  0  0  0  0  0  0  0
   -3.9250   22.1710  -10.8990 C   0  0  2  0  0  0  0  0  0  0  0  0
   -1.0260   14.7260   -2.3320 N   0  0  0  0  0  0  0  0  0  0  0  0
   -3.9240   23.5730   -7.5520 C   0  0  1  0  0  0  0  0  0  0  0  0
   -3.7010   21.3980   -6.8570 O   0  0  0  0  0  0  0  0  0  0  0  0
   -4.7860   24.1880   -8.3580 O   0  0  0  0  0  0  0  0  0  0  0  0
   -3.7480   22.3880  -12.2500 O   0  0  0  0  0  0  0  0  0  0  0  0
   -5.5730   23.6640  -10.5540 C   0  0  2  0  0  0  0  0  0  0  0  0
   -1.0450   14.7260   -1.0060 C   0  0  0  0  0  0  0  0  0  0  0  0
   -2.3130   14.8050   -2.7190 C   0  0  0  0  0  0  0  0  0  0  0  0
   -4.9210   21.8790   -6.3750 C   0  0  2  0  0  0  0  0  0  0  0  0
   -4.5170   23.3570   -6.2060 C   0  0  2  0  0  0  0  0  0  0  0  0
   -5.4320   22.2300  -10.6150 C   0  0  0  0  0  0  0  0  0  0  0  0
   -5.3480   24.1240  -11.8270 O   0  0  0  0  0  0  0  0  0  0  0  0
   -5.2750   21.2850   -5.1970 O   0  0  0  0  0  0  0  0  0  0  0  0
   -5.5360   24.2450   -6.0910 O   0  0  0  0  0  0  0  0  0  0  0  0
   -2.3380   14.8050   -0.5340 C   0  0  0  0  0  0  0  0  0  0  0  0
   -0.0490   14.6670   -0.1150 N   0  0  0  0  0  0  0  0  0  0  0  0
   -3.1160   14.8560   -1.6190 N   0  0  0  0  0  0  0  0  0  0  0  0
   -2.6120   14.8180    0.8200 C   0  0  0  0  0  0  0  0  0  0  0  0
   -0.3020   14.6740    1.2120 C   0  0  0  0  0  0  0  0  0  0  0  0
   -3.9040   14.9030    1.3870 N   0  0  0  0  0  0  0  0  0  0  0  0
   -1.5700   14.7400    1.6500 N   0  0  0  0  0  0  0  0  0  0  0  0
  1  2  1  0
  2  3  1  0
  1  4  2  0
  1  5  1  1
  1  6  1  0
  6  7  1  0
  7  8  1  0
  7  9  1  0
  7 10  1  0
  3 11  1  1
  3 12  1  0
 13 10  1  6
  8 14  2  0
 12 15  1  1
 12 16  1  0
 16 17  1  6
 16 18  1  0
 15 19  1  0
 18 19  1  0
 13 20  1  0
 13 21  1  0
 18 22  1  0
 18 23  1  0
 20 24  1  0
 20 25  1  6
 19 26  1  6
 21 27  1  0
 21 28  1  1
 24 29  1  1
 27 29  1  6
 25 30  1  6
 24 31  1  0
 26 32  1  0
 26 33  1  0
 28 34  1  0
 27 35  1  0
 34 35  1  0
 25 36  1  0
 31 36  1  0
 31 37  1  6
 34 38  1  1
 35 39  1  6
 32 40  2  0
 32 41  1  0
 33 42  2  0
 40 42  1  0
 40 43  1  0
 41 44  2  0
 43 45  1  0
 43 46  2  0
 44 46  1  0
M  END
>  <%Rank>  (126) 
49.603175

>  <N_hits>  (126) 
2

>  <submitter_name>  (126) 
nan

>  <original SMILES>  (126) 
nan

>  <∆G_unbound>  (126) 
5.959327

>  <∆G_bound>  (126) 
-8.320565

>  <regarded>  (126) 
mArh-5cms_N_13_N,mArh-6woj_B_0_B

>  <ref_pdb>  (126) 
nan

>  <smiles>  (126) 
CC(O[P@@](=O)(O)O[PH](O)(N=O)OC1C2OC(O)C(O)C2OC2C(O)CC(O)C21)C1OC(n2cnc3c(N)ncnc32)C(O)(O)C1O

>  <submitter_email>  (126) 
nan

>  <disregarded>  (126) 


>  <LE>  (126) 
-0.310432

>  <submitter_institution>  (126) 
nan

>  <ref_mols>  (126) 
mArh-5cms_N_13_N,mArh-6woj_B_0_B

>  <N_constrained_atoms>  (126) 
43.0

>  <ref_url>  (126) 
nan

>  <method>  (126) 
nan

>  <comRMSD>  (126) 
0.833372

>  <N_unconstrained_atoms>  (126) 
3.0

>  <∆∆G>  (126) 
-14.279892

>  <runtime>  (126) 
59.820153

>  <generation_date>  (126) 
nan

$$$$
mArh-5cb5_F_1_F-mArh-5cb5_A_0_A
     RDKit          3D

 39 42  0  0  0  0  0  0  0  0999 V2000
   -1.5550   18.4520   -5.9630 P   0  0  1  0  0  0  0  0  0  0  0  0
   -0.9230   17.2370   -5.1410 O   0  0  0  0  0  0  0  0  0  0  0  0
    0.4780   16.9900   -5.2400 C   0  0  0  0  0  0  0  0  0  0  0  0
   -2.5600   18.0580   -6.9940 O   0  0  0  0  0  0  0  0  0  0  0  0
   -2.2520   19.3270   -4.8260 O   0  0  0  0  0  0  0  0  0  0  0  0
   -0.3820   19.4570   -6.3390 O   0  0  0  0  0  0  0  0  0  0  0  0
   -0.1040   20.0540   -7.7780 P   0  0  2  0  0  0  0  0  0  0  0  0
   -1.0820   21.3350   -8.0140 O   0  0  0  0  0  0  0  0  0  0  0  0
    0.0830   18.9630   -8.7990 O   0  0  0  0  0  0  0  0  0  0  0  0
    1.2370   20.9040   -7.5600 O   0  0  0  0  0  0  0  0  0  0  0  0
    0.8190   15.6980   -4.4930 C   0  0  1  0  0  0  0  0  0  0  0  0
   -2.2710   20.9210   -8.5230 C   0  0  0  0  0  0  0  0  0  0  0  0
    0.1330   15.7440   -3.2320 O   0  0  0  0  0  0  0  0  0  0  0  0
    0.3990   14.3910   -5.1970 C   0  0  1  0  0  0  0  0  0  0  0  0
    1.5040   13.5570   -5.5210 O   0  0  0  0  0  0  0  0  0  0  0  0
   -0.5140   13.6680   -4.2180 C   0  0  1  0  0  0  0  0  0  0  0  0
   -0.3030   14.4160   -2.9100 C   0  0  2  0  0  0  0  0  0  0  0  0
   -3.4740   21.7720   -9.0370 C   0  0  1  0  0  0  0  0  0  0  0  0
   -1.8290   13.4130   -4.6810 O   0  0  0  0  0  0  0  0  0  0  0  0
   -4.6380   20.9800   -8.7590 O   0  0  0  0  0  0  0  0  0  0  0  0
   -4.0000   23.0190   -8.4020 C   0  0  2  0  0  0  0  0  0  0  0  0
   -1.3360   14.6040   -1.9350 N   0  0  0  0  0  0  0  0  0  0  0  0
   -3.2950   24.1760   -8.5570 O   0  0  0  0  0  0  0  0  0  0  0  0
   -1.1780   14.6200   -0.6010 C   0  0  0  0  0  0  0  0  0  0  0  0
   -4.2230   22.4530   -7.0240 C   0  0  2  0  0  0  0  0  0  0  0  0
   -5.1950   21.4180   -7.5230 C   0  0  2  0  0  0  0  0  0  0  0  0
   -2.6740   14.8070   -2.1960 C   0  0  0  0  0  0  0  0  0  0  0  0
   -4.9240   23.2600   -6.0950 O   0  0  0  0  0  0  0  0  0  0  0  0
   -5.3390   20.3240   -6.6620 O   0  0  0  0  0  0  0  0  0  0  0  0
   -2.4370   14.8440   -0.0840 C   0  0  0  0  0  0  0  0  0  0  0  0
   -0.0310   14.4570    0.0620 N   0  0  0  0  0  0  0  0  0  0  0  0
   -3.3720   14.9580   -1.0860 N   0  0  0  0  0  0  0  0  0  0  0  0
   -5.3400   24.3810   -6.5830 C   0  0  0  0  0  0  0  0  0  0  0  0
   -2.5360   14.9180    1.2960 C   0  0  0  0  0  0  0  0  0  0  0  0
   -0.2670   14.5330    1.3810 C   0  0  0  0  0  0  0  0  0  0  0  0
   -4.5110   25.4590   -5.9690 C   0  0  0  0  0  0  0  0  0  0  0  0
   -6.2480   24.4440   -7.3780 O   0  0  0  0  0  0  0  0  0  0  0  0
   -3.7230   15.1690    1.9440 N   0  0  0  0  0  0  0  0  0  0  0  0
   -1.4210   14.7440    2.0140 N   0  0  0  0  0  0  0  0  0  0  0  0
  1  2  1  0
  2  3  1  0
  1  4  2  0
  1  5  1  1
  1  6  1  0
  6  7  1  0
  7  8  1  0
  7  9  2  0
  7 10  1  1
 11  3  1  6
  8 12  1  0
 11 13  1  0
 11 14  1  0
 14 15  1  1
 14 16  1  0
 13 17  1  0
 16 17  1  0
 18 12  1  1
 16 19  1  6
 18 20  1  0
 18 21  1  0
 17 22  1  6
 21 23  1  1
 22 24  1  0
 21 25  1  0
 20 26  1  0
 25 26  1  0
 22 27  1  0
 25 28  1  1
 26 29  1  1
 24 30  2  0
 24 31  1  0
 27 32  2  0
 30 32  1  0
 28 33  1  0
 30 34  1  0
 31 35  2  0
 33 36  1  0
 33 37  2  0
 34 38  1  0
 34 39  2  0
 35 39  1  0
M  END
>  <%Rank>  (127) 
50.0

>  <N_hits>  (127) 
2

>  <submitter_name>  (127) 
nan

>  <original SMILES>  (127) 
nan

>  <∆G_unbound>  (127) 
7.271863

>  <∆G_bound>  (127) 
-11.075502

>  <regarded>  (127) 
mArh-5cb5_F_1_F,mArh-5cb5_A_0_A

>  <ref_pdb>  (127) 
nan

>  <smiles>  (127) 
CC(=O)OC1C(O)OC(CO[P@@](=O)(O)O[P@](=O)(O)OCC2OC(n3cnc4c(N)ncnc43)C(O)C2O)C1O

>  <submitter_email>  (127) 
nan

>  <disregarded>  (127) 


>  <LE>  (127) 
-0.470445

>  <submitter_institution>  (127) 
nan

>  <ref_mols>  (127) 
mArh-5cb5_F_1_F,mArh-5cb5_A_0_A

>  <N_constrained_atoms>  (127) 
39.0

>  <ref_url>  (127) 
nan

>  <method>  (127) 
nan

>  <comRMSD>  (127) 
0.918205

>  <N_unconstrained_atoms>  (127) 
0.0

>  <∆∆G>  (127) 
-18.347364

>  <runtime>  (127) 
62.416923

>  <generation_date>  (127) 
nan

$$$$
mArh-x0855_0_A-mArh-x0910_1_A
     RDKit          3D

 19 20  0  0  0  0  0  0  0  0999 V2000
    2.2330   12.5600   -2.8340 O   0  0  0  0  0  0  0  0  0  0  0  0
    0.8740   12.3010   -3.1430 C   0  0  0  0  0  0  0  0  0  0  0  0
    0.6480   12.5900   -4.6420 C   0  0  0  0  0  0  0  0  0  0  0  0
    0.6740   10.9310   -2.8500 O   0  0  0  0  0  0  0  0  0  0  0  0
   -0.0060   13.1570   -2.2190 C   0  0  0  0  0  0  0  0  0  0  0  0
   -1.3850   12.5650   -1.9410 C   0  0  0  0  0  0  0  0  0  0  0  0
   -0.3730   11.7130   -5.1650 N   0  0  0  0  0  0  0  0  0  0  0  0
   -2.3610   13.5280   -2.5840 C   0  0  0  0  0  0  0  0  0  0  0  0
   -0.2090   10.7900   -6.1620 C   0  0  0  0  0  0  0  0  0  0  0  0
   -1.6260   11.7930   -4.6210 N   0  0  0  0  0  0  0  0  0  0  0  0
   -2.6380   14.6070   -1.6490 N   0  0  0  0  0  0  0  0  0  0  0  0
   -1.5650   10.1430   -6.2930 C   0  0  0  0  0  0  0  0  0  0  0  0
   -2.3830   10.8830   -5.2470 C   0  0  0  0  0  0  0  0  0  0  0  0
   -2.1320    8.7800   -7.4280 Br  0  0  0  0  0  0  0  0  0  0  0  0
   -1.8290   14.7420   -0.5790 C   0  0  0  0  0  0  0  0  0  0  0  0
   -2.2470   14.7010    0.7180 N   0  0  0  0  0  0  0  0  0  0  0  0
   -0.5320   14.9340   -0.6070 N   0  0  0  0  0  0  0  0  0  0  0  0
   -1.2150   14.8650    1.5570 N   0  0  0  0  0  0  0  0  0  0  0  0
   -0.2020   15.0080    0.7090 C   0  0  0  0  0  0  0  0  0  0  0  0
  2  1  1  0
  2  3  1  0
  2  4  1  0
  2  5  1  0
  5  6  1  0
  3  7  1  0
  6  8  1  0
  7  9  1  0
  7 10  1  0
  8 11  1  0
  9 12  2  0
 10 13  2  0
 12 13  1  0
 12 14  1  0
 11 15  1  0
 15 16  1  0
 15 17  2  0
 16 18  1  0
 17 19  1  0
 18 19  2  0
M  END
>  <%Rank>  (128) 
50.396825

>  <N_hits>  (128) 
2

>  <submitter_name>  (128) 
nan

>  <original SMILES>  (128) 
nan

>  <∆G_unbound>  (128) 
0.32798

>  <∆G_bound>  (128) 
-3.488263

>  <regarded>  (128) 
mArh-x0855_0_A,mArh-x0910_1_A

>  <ref_pdb>  (128) 
nan

>  <smiles>  (128) 
OC(O)(CCCNc1ncn[nH]1)Cn1cc(Br)cn1

>  <submitter_email>  (128) 
nan

>  <disregarded>  (128) 


>  <LE>  (128) 
-0.200855

>  <submitter_institution>  (128) 
nan

>  <ref_mols>  (128) 
mArh-x0855_0_A,mArh-x0910_1_A

>  <N_constrained_atoms>  (128) 
16.0

>  <ref_url>  (128) 
nan

>  <method>  (128) 
nan

>  <comRMSD>  (128) 
0.364924

>  <N_unconstrained_atoms>  (128) 
3.0

>  <∆∆G>  (128) 
-3.816244

>  <runtime>  (128) 
19.319236

>  <generation_date>  (128) 
nan

$$$$
mArh-5cms_D_3_D-mArh-x0436_0_B
     RDKit          3D

 47 50  0  0  0  0  0  0  0  0999 V2000
   -1.1810   18.1480   -6.0050 P   0  0  0  0  0  0  0  0  0  0  0  0
   -1.1100   16.7660   -5.3680 O   0  0  0  0  0  0  0  0  0  0  0  0
    0.2160   16.6690   -4.9010 C   0  0  0  0  0  0  0  0  0  0  0  0
   -2.3680   17.6360   -6.9490 O   0  0  0  0  0  0  0  0  0  0  0  0
   -1.6890   18.7880   -4.6000 O   0  0  0  0  0  0  0  0  0  0  0  0
   -0.8650   19.5980   -6.5460 O   0  0  0  0  0  0  0  0  0  0  0  0
   -1.3880   20.2940   -7.7540 P   0  0  0  0  0  0  0  0  0  0  0  0
   -2.0630   21.0600   -8.9070 O   0  0  0  0  0  0  0  0  0  0  0  0
   -0.9300   18.9520   -8.6050 O   0  0  0  0  0  0  0  0  0  0  0  0
   -0.2220   21.3850   -7.6490 O   0  0  0  0  0  0  0  0  0  0  0  0
    0.5230   15.3540   -4.2080 C   0  0  1  0  0  0  0  0  0  0  0  0
   -3.1680   21.8320   -8.4840 C   0  0  0  0  0  0  0  0  0  0  0  0
   -0.0610   15.3270   -2.9640 O   0  0  0  0  0  0  0  0  0  0  0  0
   -0.0290   14.1970   -4.9950 C   0  0  1  0  0  0  0  0  0  0  0  0
    1.0290   13.4570   -5.5330 O   0  0  0  0  0  0  0  0  0  0  0  0
   -3.9420   22.6610   -9.5380 C   0  0  0  0  0  0  0  0  0  0  0  0
   -1.1870   14.5450   -3.1040 C   0  0  1  0  0  0  0  0  0  0  0  0
   -0.6680   13.4540   -3.8260 C   0  0  1  0  0  0  0  0  0  0  0  0
   -1.6220   12.5780   -4.2790 O   0  0  0  0  0  0  0  0  0  0  0  0
   -5.3620   23.0990   -9.1670 C   0  0  0  0  0  0  0  0  0  0  0  0
   -1.8240   14.1030   -1.8960 N   0  0  0  0  0  0  0  0  0  0  0  0
   -6.0530   24.0220  -10.2150 C   0  0  0  0  0  0  0  0  0  0  0  0
   -1.4870   14.7440   -0.6520 C   0  0  1  0  0  0  0  0  0  0  0  0
   -3.2450   14.2200   -2.0420 C   0  0  0  0  0  0  0  0  0  0  0  0
   -4.9760   24.5930  -11.1610 C   0  0  0  0  0  0  0  0  0  0  0  0
   -2.8930   15.1310   -0.0660 C   0  0  1  0  0  0  0  0  0  0  0  0
   -0.8090   13.9530    0.1930 N   0  0  0  0  0  0  0  0  0  0  0  0
   -3.7380   14.1510   -0.6750 N   0  0  0  0  0  0  0  0  0  0  0  0
   -5.5320   25.9510  -11.6680 C   0  0  0  0  0  0  0  0  0  0  0  0
   -2.7760   15.0610    1.3410 C   0  0  2  0  0  0  0  0  0  0  0  0
   -0.4350   14.7120    1.3490 C   0  0  0  0  0  0  0  0  0  0  0  0
   -3.7850   15.9630    1.9130 N   0  0  0  0  0  0  0  0  0  0  0  0
   -4.4830   26.8130  -12.3420 C   0  0  0  0  0  0  0  0  0  0  0  0
   -1.5160   15.4590    1.8800 N   0  0  0  0  0  0  0  0  0  0  0  0
   -4.6620   28.3240  -12.2010 C   0  0  0  0  0  0  0  0  0  0  0  0
   -6.0420   28.6570  -12.4710 C   0  0  0  0  0  0  0  0  0  0  0  0
   -6.9200   28.9570  -11.4600 C   0  0  0  0  0  0  0  0  0  0  0  0
   -6.4960   28.6620  -13.7600 C   0  0  0  0  0  0  0  0  0  0  0  0
   -8.2540   29.2480  -11.7520 C   0  0  0  0  0  0  0  0  0  0  0  0
   -7.7890   28.9430  -14.0500 C   0  0  0  0  0  0  0  0  0  0  0  0
   -8.7320   29.2450  -13.0640 C   0  0  0  0  0  0  0  0  0  0  0  0
  -10.0100   29.5020  -13.4640 O   0  0  0  0  0  0  0  0  0  0  0  0
  -10.3370   30.3270  -14.5350 C   0  0  2  0  0  0  0  0  0  0  0  0
  -11.7940   30.7650  -14.4430 C   0  0  0  0  0  0  0  0  0  0  0  0
  -10.1250   29.6420  -15.7440 C   0  0  0  0  0  0  0  0  0  0  0  0
  -10.3730   28.2520  -15.7780 N   0  0  0  0  0  0  0  0  0  0  0  0
   -9.7260   30.2320  -16.7860 O   0  0  0  0  0  0  0  0  0  0  0  0
  1  2  1  0
  2  3  1  0
  1  4  1  0
  1  5  1  0
  1  6  1  0
  6  7  1  0
  7  8  1  0
  7  9  1  0
  7 10  1  0
 11  3  1  6
  8 12  1  0
 11 13  1  0
 11 14  1  0
 14 15  1  1
 12 16  1  0
 13 17  1  0
 14 18  1  0
 17 18  1  0
 18 19  1  6
 16 20  1  0
 17 21  1  1
 20 22  1  0
 21 23  1  0
 21 24  1  0
 22 25  1  0
 23 26  1  0
 23 27  1  1
 24 28  1  0
 26 28  1  6
 25 29  1  0
 26 30  1  0
 27 31  1  0
 30 32  1  1
 29 33  1  0
 30 34  1  0
 31 34  1  0
 33 35  1  0
 35 36  1  0
 36 37  2  0
 36 38  1  0
 37 39  1  0
 38 40  2  0
 39 41  2  0
 40 41  1  0
 41 42  1  0
 42 43  1  0
 43 44  1  1
 43 45  1  0
 45 46  1  0
 45 47  2  0
M  CHG  2   4  -1   9  -1
M  END
>  <%Rank>  (129) 
50.793651

>  <N_hits>  (129) 
2

>  <submitter_name>  (129) 
nan

>  <original SMILES>  (129) 
nan

>  <∆G_unbound>  (129) 
1.869683

>  <∆G_bound>  (129) 
-10.748415

>  <regarded>  (129) 
mArh-5cms_D_3_D,mArh-x0436_0_B

>  <ref_pdb>  (129) 
nan

>  <smiles>  (129) 
C[C@@H](Oc1ccc(CCCCCCCCO[PH]([O-])(O)O[PH]([O-])(O)OCC2OC(N3CNC4C(N)NCNC43)C(O)C2O)cc1)C(N)=O

>  <submitter_email>  (129) 
nan

>  <disregarded>  (129) 


>  <LE>  (129) 
-0.26847

>  <submitter_institution>  (129) 
nan

>  <ref_mols>  (129) 
mArh-5cms_D_3_D,mArh-x0436_0_B

>  <N_constrained_atoms>  (129) 
40.0

>  <ref_url>  (129) 
nan

>  <method>  (129) 
nan

>  <comRMSD>  (129) 
0.738678

>  <N_unconstrained_atoms>  (129) 
7.0

>  <∆∆G>  (129) 
-12.618098

>  <runtime>  (129) 
27.235441

>  <generation_date>  (129) 
nan

$$$$
mArh-5lw0_A_0_A-mArh-5cb5_K_0_K
     RDKit          3D

 40 43  0  0  0  0  0  0  0  0999 V2000
   -1.6140   17.6670   -6.0240 P   0  0  1  0  0  0  0  0  0  0  0  0
   -0.7330   16.3950   -5.5660 O   0  0  0  0  0  0  0  0  0  0  0  0
    0.6030   16.5260   -5.0680 C   0  0  0  0  0  0  0  0  0  0  0  0
   -2.7210   17.3510   -6.9290 O   0  0  0  0  0  0  0  0  0  0  0  0
   -2.2150   17.9800   -4.5960 O   0  0  0  0  0  0  0  0  0  0  0  0
   -0.7270   19.0100   -6.2630 N   0  0  0  0  0  0  0  0  0  0  0  0
   -0.4600   19.4090   -7.8320 P   0  0  2  0  0  0  0  0  0  0  0  0
    0.5840   18.8800   -5.6560 O   0  0  0  0  0  0  0  0  0  0  0  0
   -0.0860   18.3240   -8.7740 O   0  0  0  0  0  0  0  0  0  0  0  0
    0.7610   20.5760   -7.9290 N   0  0  0  0  0  0  0  0  0  0  0  0
   -1.7340   20.1680   -8.4740 O   0  0  0  0  0  0  0  0  0  0  0  0
    0.9370   15.2910   -4.2150 C   0  0  1  0  0  0  0  0  0  0  0  0
   -2.4410   21.2930   -7.9390 C   0  0  1  0  0  0  0  0  0  0  0  0
    0.4840   21.6970   -7.5460 O   0  0  0  0  0  0  0  0  0  0  0  0
    0.2340   15.3580   -2.9570 O   0  0  0  0  0  0  0  0  0  0  0  0
    0.6240   13.8880   -4.7820 C   0  0  1  0  0  0  0  0  0  0  0  0
    1.7150   12.9750   -4.6150 O   0  0  0  0  0  0  0  0  0  0  0  0
   -1.5410   22.4910   -7.9800 C   0  0  0  0  0  0  0  0  0  0  0  0
   -0.5560   13.3750   -3.9440 C   0  0  2  0  0  0  0  0  0  0  0  0
   -0.9730   14.6380   -3.1980 C   0  0  1  0  0  0  0  0  0  0  0  0
   -3.7000   21.4950   -8.8050 C   0  0  2  0  0  0  0  0  0  0  0  0
   -0.2440   12.2020   -3.2090 O   0  0  0  0  0  0  0  0  0  0  0  0
   -4.5660   22.7460   -8.8460 C   0  0  0  0  0  0  0  0  0  0  0  0
   -4.7090   20.6060   -8.3300 O   0  0  0  0  0  0  0  0  0  0  0  0
   -1.8390   14.7670   -2.0460 N   0  0  0  0  0  0  0  0  0  0  0  0
   -5.6290   22.5720   -9.7590 O   0  0  0  0  0  0  0  0  0  0  0  0
   -3.9420   23.9630   -9.1810 O   0  0  0  0  0  0  0  0  0  0  0  0
   -5.1670   21.2250   -7.1450 C   0  0  1  0  0  0  0  0  0  0  0  0
   -5.0300   22.7420   -7.3970 C   0  0  2  0  0  0  0  0  0  0  0  0
   -1.6040   14.6880   -0.6920 C   0  0  0  0  0  0  0  0  0  0  0  0
   -3.1740   15.0510   -2.2090 C   0  0  0  0  0  0  0  0  0  0  0  0
   -6.4840   20.8040   -6.9040 O   0  0  0  0  0  0  0  0  0  0  0  0
   -6.3030   23.3850   -7.3090 O   0  0  0  0  0  0  0  0  0  0  0  0
   -2.8410   14.9670   -0.1260 C   0  0  0  0  0  0  0  0  0  0  0  0
   -0.4630   14.4250   -0.0300 N   0  0  0  0  0  0  0  0  0  0  0  0
   -3.8060   15.1800   -1.0760 N   0  0  0  0  0  0  0  0  0  0  0  0
   -2.9170   15.0010    1.2500 C   0  0  0  0  0  0  0  0  0  0  0  0
   -0.6600   14.4580    1.3030 C   0  0  0  0  0  0  0  0  0  0  0  0
   -4.0990   15.3240    1.8850 N   0  0  0  0  0  0  0  0  0  0  0  0
   -1.8050   14.7230    1.9670 N   0  0  0  0  0  0  0  0  0  0  0  0
  1  2  1  0
  2  3  1  0
  1  4  2  0
  1  5  1  1
  1  6  1  0
  6  7  1  0
  6  8  1  0
  7  9  2  0
  7 10  1  1
  7 11  1  0
 12  3  1  6
 11 13  1  0
 10 14  2  0
 12 15  1  0
 12 16  1  0
 16 17  1  1
 13 18  1  6
 16 19  1  0
 15 20  1  0
 19 20  1  0
 13 21  1  0
 19 22  1  1
 21 23  1  0
 21 24  1  1
 20 25  1  1
 23 26  1  0
 23 27  1  0
 24 28  1  0
 23 29  1  0
 28 29  1  0
 25 30  1  0
 25 31  1  0
 28 32  1  6
 29 33  1  6
 30 34  2  0
 30 35  1  0
 31 36  2  0
 34 36  1  0
 34 37  1  0
 35 38  2  0
 37 39  1  0
 37 40  2  0
 38 40  1  0
M  END
>  <%Rank>  (130) 
51.190476

>  <N_hits>  (130) 
2

>  <submitter_name>  (130) 
nan

>  <original SMILES>  (130) 
nan

>  <∆G_unbound>  (130) 
4.572608

>  <∆G_bound>  (130) 
-12.549582

>  <regarded>  (130) 
mArh-5lw0_A_0_A,mArh-5cb5_K_0_K

>  <ref_pdb>  (130) 
nan

>  <smiles>  (130) 
CC(O[P@@](=O)(N=O)N(O)[P@](=O)(O)OCC1OC(n2cnc3c(N)ncnc32)C(O)C1O)C1OC(O)C(O)C1(O)O

>  <submitter_email>  (130) 
nan

>  <disregarded>  (130) 


>  <LE>  (130) 
-0.428055

>  <submitter_institution>  (130) 
nan

>  <ref_mols>  (130) 
mArh-5lw0_A_0_A,mArh-5cb5_K_0_K

>  <N_constrained_atoms>  (130) 
40.0

>  <ref_url>  (130) 
nan

>  <method>  (130) 
nan

>  <comRMSD>  (130) 
0.919064

>  <N_unconstrained_atoms>  (130) 
0.0

>  <∆∆G>  (130) 
-17.122189

>  <runtime>  (130) 
49.691113

>  <generation_date>  (130) 
nan

$$$$
mArh-x0962_3_A-mArh-x0438_0_A
     RDKit          3D

 27 29  0  0  0  0  0  0  0  0999 V2000
    1.0370   11.2510   -8.9240 N   0  0  0  0  0  0  0  0  0  0  0  0
    1.0240   10.8590   -7.5300 C   0  0  1  0  0  0  0  0  0  0  0  0
    0.7860   12.0940   -6.6250 C   0  0  0  0  0  0  0  0  0  0  0  0
   -0.0110    9.8290   -7.4600 C   0  0  0  0  0  0  0  0  0  0  0  0
    0.1480   11.9220   -5.2390 C   0  0  0  0  0  0  0  0  0  0  0  0
    0.1620    8.5830   -8.0080 N   0  0  0  0  0  0  0  0  0  0  0  0
   -1.2640    9.8130   -6.9160 C   0  0  0  0  0  0  0  0  0  0  0  0
   -0.5490   13.2150   -4.7840 C   0  0  0  0  0  0  0  0  0  0  0  0
   -0.9730    7.8800   -7.7730 C   0  0  0  0  0  0  0  0  0  0  0  0
   -1.8590    8.5960   -7.1150 N   0  0  0  0  0  0  0  0  0  0  0  0
   -1.6290   13.0210   -3.7030 C   0  0  0  0  0  0  0  0  0  0  0  0
   -2.8400   13.9730   -3.7720 C   0  0  0  0  0  0  0  0  0  0  0  0
   -2.8040   15.1780   -2.8230 C   0  0  0  0  0  0  0  0  0  0  0  0
   -3.6620   15.0260   -1.5810 C   0  0  0  0  0  0  0  0  0  0  0  0
   -5.0460   14.8740   -1.7300 C   0  0  0  0  0  0  0  0  0  0  0  0
   -3.0880   15.0230   -0.2940 C   0  0  0  0  0  0  0  0  0  0  0  0
   -5.7990   14.6990   -0.5700 C   0  0  0  0  0  0  0  0  0  0  0  0
   -3.8710   14.8580    0.8590 C   0  0  0  0  0  0  0  0  0  0  0  0
   -7.1420   14.5000   -0.3710 N   0  0  0  0  0  0  0  0  0  0  0  0
   -5.2530   14.6840    0.7040 C   0  0  0  0  0  0  0  0  0  0  0  0
   -7.3650   14.3590    0.9790 C   0  0  0  0  0  0  0  0  0  0  0  0
   -6.2350   14.4800    1.6450 N   0  0  0  0  0  0  0  0  0  0  0  0
   -8.7200   14.0890    1.5380 C   0  0  0  0  0  0  0  0  0  0  0  0
   -9.3400   15.3690    2.6110 S   0  0  0  0  0  0  0  0  0  0  0  0
   -8.1200   15.5600    3.8990 C   0  0  0  0  0  0  0  0  0  0  0  0
  -10.5580   14.8600    3.2190 O   0  0  0  0  0  0  0  0  0  0  0  0
   -9.4160   16.5790    1.8280 O   0  0  0  0  0  0  0  0  0  0  0  0
  2  1  1  6
  2  3  1  0
  2  4  1  0
  3  5  1  0
  4  6  1  0
  4  7  2  0
  5  8  1  0
  6  9  1  0
  7 10  1  0
  9 10  2  0
  8 11  1  0
 11 12  1  0
 12 13  1  0
 13 14  1  0
 14 15  2  0
 14 16  1  0
 15 17  1  0
 16 18  2  0
 17 19  1  0
 17 20  2  0
 18 20  1  0
 19 21  1  0
 20 22  1  0
 21 22  2  0
 21 23  1  0
 24 23  1  0
 24 25  1  0
 24 26  2  0
 24 27  2  0
M  END
>  <%Rank>  (131) 
51.587302

>  <N_hits>  (131) 
2

>  <submitter_name>  (131) 
nan

>  <original SMILES>  (131) 
nan

>  <∆G_unbound>  (131) 
0.004183

>  <∆G_bound>  (131) 
-5.973083

>  <regarded>  (131) 
mArh-x0962_3_A,mArh-x0438_0_A

>  <ref_pdb>  (131) 
nan

>  <smiles>  (131) 
CS(=O)(=O)Cc1nc2ccc(CCCCCCC(N)c3cnc[nH]3)cc2[nH]1

>  <submitter_email>  (131) 
nan

>  <disregarded>  (131) 


>  <LE>  (131) 
-0.22138

>  <submitter_institution>  (131) 
nan

>  <ref_mols>  (131) 
mArh-x0962_3_A,mArh-x0438_0_A

>  <N_constrained_atoms>  (131) 
21.0

>  <ref_url>  (131) 
nan

>  <method>  (131) 
nan

>  <comRMSD>  (131) 
0.442302

>  <N_unconstrained_atoms>  (131) 
6.0

>  <∆∆G>  (131) 
-5.977267

>  <runtime>  (131) 
37.903933

>  <generation_date>  (131) 
nan

$$$$
mArh-x0676_0_B-mArh-5cms_A_0_A
     RDKit          3D

 54 59  0  0  0  0  0  0  0  0999 V2000
    5.8050    6.4760   -9.2650 C   0  0  0  0  0  0  0  0  0  0  0  0
    4.7300    7.0950  -10.0830 C   0  0  0  0  0  0  0  0  0  0  0  0
    4.8970    7.7250  -11.1980 N   0  0  0  0  0  0  0  0  0  0  0  0
    3.2760    7.0780   -9.7190 C   0  0  0  0  0  0  0  0  0  0  0  0
    2.7110    8.1490  -10.6140 C   0  0  0  0  0  0  0  0  0  0  0  0
    3.6530    8.2000  -11.6130 N   0  0  0  0  0  0  0  0  0  0  0  0
    1.6100    8.7890  -10.3700 N   0  0  0  0  0  0  0  0  0  0  0  0
    3.7700    9.2000  -12.6320 C   0  0  0  0  0  0  0  0  0  0  0  0
    0.8440    8.4810   -9.1580 C   0  0  0  0  0  0  0  0  0  0  0  0
    2.8590   10.2760  -12.7190 C   0  0  0  0  0  0  0  0  0  0  0  0
    4.7890    9.1700  -13.5800 C   0  0  0  0  0  0  0  0  0  0  0  0
    0.0980    9.7390   -8.6400 C   0  0  0  0  0  0  0  0  0  0  0  0
    2.9060   11.3130  -13.6820 C   0  0  0  0  0  0  0  0  0  0  0  0
    4.8890   10.1580  -14.5550 C   0  0  0  0  0  0  0  0  0  0  0  0
    1.0080   10.7680   -7.9760 C   0  0  0  0  0  0  0  0  0  0  0  0
    3.9790   11.1960  -14.6050 C   0  0  0  0  0  0  0  0  0  0  0  0
    0.1960   11.5900   -6.9680 C   0  0  0  0  0  0  0  0  0  0  0  0
    1.2690   12.2950   -6.0970 C   0  0  0  0  0  0  0  0  0  0  0  0
    0.9930   13.6910   -5.8340 O   0  0  0  0  0  0  0  0  0  0  0  0
   -0.2260   13.9290   -5.1240 C   0  0  2  0  0  0  0  0  0  0  0  0
   -0.3920   15.2130   -4.5760 C   0  0  2  0  0  0  0  0  0  0  0  0
   -0.2690   13.0960   -4.0500 C   0  0  2  0  0  0  0  0  0  0  0  0
    0.0690   16.5000   -5.1940 C   0  0  0  0  0  0  0  0  0  0  0  0
   -1.0310   11.9380   -4.2390 O   0  0  0  0  0  0  0  0  0  0  0  0
    0.1230   15.1720   -3.2390 O   0  0  0  0  0  0  0  0  0  0  0  0
   -0.3950   13.9380   -2.7680 C   0  0  1  0  0  0  0  0  0  0  0  0
   -1.0000   17.3500   -4.8350 O   0  0  0  0  0  0  0  0  0  0  0  0
   -1.5700   14.3340   -2.0060 N   0  0  0  0  0  0  0  0  0  0  0  0
   -1.6180   18.2980   -5.9230 P   0  0  1  0  0  0  0  0  0  0  0  0
   -1.5990   14.5560   -0.7150 C   0  0  0  0  0  0  0  0  0  0  0  0
   -2.8830   14.5760   -2.4060 C   0  0  0  0  0  0  0  0  0  0  0  0
   -2.5510   17.6440   -6.8950 O   0  0  0  0  0  0  0  0  0  0  0  0
   -2.3740   19.3810   -5.0360 O   0  0  0  0  0  0  0  0  0  0  0  0
   -0.3810   19.0520   -6.4720 O   0  0  0  0  0  0  0  0  0  0  0  0
   -2.8380   14.9150   -0.2620 C   0  0  0  0  0  0  0  0  0  0  0  0
   -0.4960   14.4230    0.0220 N   0  0  0  0  0  0  0  0  0  0  0  0
   -3.6740   14.9310   -1.3700 N   0  0  0  0  0  0  0  0  0  0  0  0
   -0.1520   19.7400   -7.8330 P   0  0  1  0  0  0  0  0  0  0  0  0
   -2.9810   15.1710    1.1120 C   0  0  0  0  0  0  0  0  0  0  0  0
   -0.7220   14.6750    1.3060 C   0  0  0  0  0  0  0  0  0  0  0  0
    0.8310   20.8540   -7.8200 O   0  0  0  0  0  0  0  0  0  0  0  0
    0.2090   18.5430   -8.8170 O   0  0  0  0  0  0  0  0  0  0  0  0
   -1.5960   20.1100   -8.3560 O   0  0  0  0  0  0  0  0  0  0  0  0
   -4.1680   15.5490    1.7230 N   0  0  0  0  0  0  0  0  0  0  0  0
   -1.8800   15.0340    1.8810 N   0  0  0  0  0  0  0  0  0  0  0  0
   -2.3430   21.1900   -7.8250 C   0  0  0  0  0  0  0  0  0  0  0  0
   -3.1280   21.6610   -9.0200 C   0  0  2  0  0  0  0  0  0  0  0  0
   -2.6090   22.6900   -9.5990 C   0  0  2  0  0  0  0  0  0  0  0  0
   -4.5420   21.8360   -8.9230 O   0  0  0  0  0  0  0  0  0  0  0  0
   -1.3460   23.0190   -9.0930 O   0  0  0  0  0  0  0  0  0  0  0  0
   -4.8270   22.9580   -9.7400 C   0  0  2  0  0  0  0  0  0  0  0  0
   -3.6050   23.7750   -9.6330 C   0  0  2  0  0  0  0  0  0  0  0  0
   -5.8220   23.7470   -9.1550 O   0  0  0  0  0  0  0  0  0  0  0  0
   -3.4500   24.5770  -10.8220 O   0  0  0  0  0  0  0  0  0  0  0  0
  1  2  1  0
  2  3  2  0
  2  4  1  0
  4  5  1  0
  3  6  1  0
  5  6  1  0
  5  7  2  3
  6  8  1  0
  7  9  1  0
  8 10  2  0
  8 11  1  0
  9 12  1  0
 10 13  1  0
 11 14  2  0
 12 15  1  0
 13 16  2  0
 14 16  1  0
 15 17  1  0
 17 18  1  0
 18 19  1  0
 20 19  1  1
 20 21  1  0
 20 22  1  0
 21 23  1  6
 22 24  1  6
 21 25  1  0
 22 26  1  0
 25 26  1  0
 23 27  1  0
 26 28  1  6
 27 29  1  0
 28 30  1  0
 28 31  1  0
 29 32  2  0
 29 33  1  1
 29 34  1  0
 30 35  2  0
 30 36  1  0
 31 37  2  0
 35 37  1  0
 34 38  1  0
 35 39  1  0
 36 40  2  0
 38 41  2  0
 38 42  1  6
 38 43  1  0
 39 44  1  0
 39 45  2  0
 40 45  1  0
 43 46  1  0
 47 46  1  1
 47 48  1  0
 47 49  1  0
 48 50  1  1
 49 51  1  0
 48 52  1  0
 51 52  1  0
 51 53  1  1
 52 54  1  6
M  END
>  <%Rank>  (132) 
51.984127

>  <N_hits>  (132) 
2

>  <submitter_name>  (132) 
nan

>  <original SMILES>  (132) 
nan

>  <∆G_unbound>  (132) 
4.197341

>  <∆G_bound>  (132) 
-16.049727

>  <regarded>  (132) 
mArh-x0676_0_B,mArh-5cms_A_0_A

>  <ref_pdb>  (132) 
nan

>  <smiles>  (132) 
CC1=NN(c2ccccc2)C(=NCCCCCOC2C(CO[P@@](=O)(O)O[P@@](=O)(O)OCC3OC(O)C(O)C3O)OC(n3cnc4c(N)ncnc43)C2O)C1

>  <submitter_email>  (132) 
nan

>  <disregarded>  (132) 


>  <LE>  (132) 
-0.374946

>  <submitter_institution>  (132) 
nan

>  <ref_mols>  (132) 
mArh-x0676_0_B,mArh-5cms_A_0_A

>  <N_constrained_atoms>  (132) 
49.0

>  <ref_url>  (132) 
nan

>  <method>  (132) 
nan

>  <comRMSD>  (132) 
0.908135

>  <N_unconstrained_atoms>  (132) 
5.0

>  <∆∆G>  (132) 
-20.247068

>  <runtime>  (132) 
53.009124

>  <generation_date>  (132) 
nan

$$$$
mArh-x0722_0_A-mArh-5cb5_I_0_I
     RDKit          3D

 42 45  0  0  0  0  0  0  0  0999 V2000
   -4.4610   15.8190    2.3610 C   0  0  0  0  0  0  0  0  0  0  0  0
   -3.8880   14.8420    1.3780 C   0  0  2  0  0  0  0  0  0  0  0  0
   -2.5570   14.5690    1.9350 N   0  0  0  0  0  0  0  0  0  0  0  0
   -3.8440   15.3940   -0.0700 C   0  0  2  0  0  0  0  0  0  0  0  0
   -5.1700   15.7100   -0.7860 C   0  0  0  0  0  0  0  0  0  0  0  0
   -1.6110   13.9760    0.9900 N   0  0  0  0  0  0  0  0  0  0  0  0
   -3.0840   14.5200   -0.9340 N   0  0  0  0  0  0  0  0  0  0  0  0
   -0.2580   14.0730    1.5070 C   0  0  0  0  0  0  0  0  0  0  0  0
   -6.3410   14.7850   -0.5360 C   0  0  0  0  0  0  0  0  0  0  0  0
   -1.7560   14.3230   -0.4130 C   0  0  2  0  0  0  0  0  0  0  0  0
   -2.8500   15.0640   -2.2590 C   0  0  0  0  0  0  0  0  0  0  0  0
   -7.5200   15.0650   -0.7180 O   0  0  0  0  0  0  0  0  0  0  0  0
   -6.0080   13.5470   -0.0670 N   0  0  0  0  0  0  0  0  0  0  0  0
   -0.9980   13.2870   -1.2640 C   0  0  0  0  0  0  0  0  0  0  0  0
   -1.1730   15.6700   -0.8280 C   0  0  0  0  0  0  0  0  0  0  0  0
   -1.5360   15.6980   -2.2300 N   0  0  0  0  0  0  0  0  0  0  0  0
   -0.5210   15.0190   -3.0010 C   0  0  2  0  0  0  0  0  0  0  0  0
    0.6140   15.8730   -3.1820 O   0  0  0  0  0  0  0  0  0  0  0  0
   -0.9010   14.3490   -4.3480 C   0  0  2  0  0  0  0  0  0  0  0  0
   -1.0800   12.9200   -4.2970 O   0  0  0  0  0  0  0  0  0  0  0  0
    0.9360   15.9210   -4.5720 C   0  0  1  0  0  0  0  0  0  0  0  0
    0.3420   14.6410   -5.1710 C   0  0  1  0  0  0  0  0  0  0  0  0
    0.5570   17.3210   -5.1030 C   0  0  0  0  0  0  0  0  0  0  0  0
    1.2330   13.5440   -5.2450 O   0  0  0  0  0  0  0  0  0  0  0  0
   -0.2890   17.3300   -6.2470 O   0  0  0  0  0  0  0  0  0  0  0  0
   -1.6000   18.2220   -6.0630 P   0  0  2  0  0  0  0  0  0  0  0  0
   -2.0030   18.3110   -4.6820 O   0  0  0  0  0  0  0  0  0  0  0  0
   -2.7030   17.4480   -6.8680 O   0  0  0  0  0  0  0  0  0  0  0  0
   -1.3510   19.5830   -6.8080 O   0  0  0  0  0  0  0  0  0  0  0  0
   -0.1470   19.9000   -7.7820 P   0  0  1  0  0  0  0  0  0  0  0  0
    1.1970   20.0760   -7.1950 O   0  0  0  0  0  0  0  0  0  0  0  0
   -0.1870   18.6890   -8.8270 O   0  0  0  0  0  0  0  0  0  0  0  0
   -0.7360   21.1750   -8.5400 O   0  0  0  0  0  0  0  0  0  0  0  0
   -2.1230   21.1760   -8.6730 C   0  0  0  0  0  0  0  0  0  0  0  0
   -2.9090   22.1090   -7.8140 C   0  0  1  0  0  0  0  0  0  0  0  0
   -3.7890   23.2430   -8.3810 C   0  0  1  0  0  0  0  0  0  0  0  0
   -3.8690   21.1950   -7.2410 O   0  0  0  0  0  0  0  0  0  0  0  0
   -4.5020   23.0700   -9.6160 O   0  0  0  0  0  0  0  0  0  0  0  0
   -5.1200   21.8500   -7.1780 C   0  0  2  0  0  0  0  0  0  0  0  0
   -4.7300   23.3070   -7.1840 C   0  0  2  0  0  0  0  0  0  0  0  0
   -5.7840   21.5080   -5.9600 O   0  0  0  0  0  0  0  0  0  0  0  0
   -5.8900   24.1180   -7.3270 O   0  0  0  0  0  0  0  0  0  0  0  0
  2  1  1  1
  2  3  1  0
  2  4  1  0
  4  5  1  6
  3  6  1  0
  4  7  1  0
  6  8  1  0
  5  9  1  0
  6 10  1  0
  7 10  1  0
  7 11  1  0
  9 12  2  0
  9 13  1  0
 10 14  1  6
 10 15  1  0
 11 16  1  0
 15 16  1  0
 17 16  1  6
 17 18  1  0
 17 19  1  0
 19 20  1  1
 18 21  1  0
 19 22  1  0
 21 22  1  0
 21 23  1  6
 22 24  1  1
 23 25  1  0
 25 26  1  0
 26 27  2  0
 26 28  1  6
 26 29  1  0
 29 30  1  0
 30 31  2  0
 30 32  1  6
 30 33  1  0
 33 34  1  0
 35 34  1  6
 35 36  1  0
 35 37  1  0
 36 38  1  6
 37 39  1  0
 36 40  1  0
 39 40  1  0
 39 41  1  1
 40 42  1  6
M  END
>  <%Rank>  (133) 
52.380952

>  <N_hits>  (133) 
2

>  <submitter_name>  (133) 
nan

>  <original SMILES>  (133) 
nan

>  <∆G_unbound>  (133) 
5.73055

>  <∆G_bound>  (133) 
-14.307175

>  <regarded>  (133) 
mArh-x0722_0_A,mArh-5cb5_I_0_I

>  <ref_pdb>  (133) 
nan

>  <smiles>  (133) 
CC1NN(C)C2(C)CN(C3OC(CO[P@@](=O)(O)O[P@@](=O)(O)OCC4OC(O)C(O)C4O)C(O)C3O)CN2C1CC(N)=O

>  <submitter_email>  (133) 
nan

>  <disregarded>  (133) 


>  <LE>  (133) 
-0.477089

>  <submitter_institution>  (133) 
nan

>  <ref_mols>  (133) 
mArh-x0722_0_A,mArh-5cb5_I_0_I

>  <N_constrained_atoms>  (133) 
42.0

>  <ref_url>  (133) 
nan

>  <method>  (133) 
nan

>  <comRMSD>  (133) 
0.961508

>  <N_unconstrained_atoms>  (133) 
0.0

>  <∆∆G>  (133) 
-20.037725

>  <runtime>  (133) 
33.380395

>  <generation_date>  (133) 
nan

$$$$
mArh-x0471_0_A-mArh-x0837_0_A
     RDKit          3D

 17 18  0  0  0  0  0  0  0  0999 V2000
   -8.8290   14.0130    2.7980 N   0  0  0  0  0  0  0  0  0  0  0  0
   -8.9530   14.9820    3.7670 C   0  0  0  0  0  0  0  0  0  0  0  0
   -9.2620   16.1460    3.5070 O   0  0  0  0  0  0  0  0  0  0  0  0
   -8.8870   14.3560    1.3950 C   0  0  0  0  0  0  0  0  0  0  0  0
   -8.6950   14.5100    5.1940 C   0  0  0  0  0  0  0  0  0  0  0  0
   -7.4660   14.6020    0.8940 C   0  0  0  0  0  0  0  0  0  0  0  0
   -9.8950   13.7300    5.7220 C   0  0  0  0  0  0  0  0  0  0  0  0
   -8.3240   15.6660    6.1120 C   0  0  0  0  0  0  0  0  0  0  0  0
   -7.1920   14.7110   -0.4580 N   0  0  0  0  0  0  0  0  0  0  0  0
   -6.3840   14.7370    1.6490 N   0  0  0  0  0  0  0  0  0  0  0  0
   -5.3350   14.9450    0.7990 C   0  0  0  0  0  0  0  0  0  0  0  0
   -5.8500   14.9280   -0.6090 C   0  0  0  0  0  0  0  0  0  0  0  0
   -5.0260   15.1050   -1.6920 C   0  0  0  0  0  0  0  0  0  0  0  0
   -3.9680   15.1530    1.0530 C   0  0  0  0  0  0  0  0  0  0  0  0
   -3.5340   15.3190   -1.3700 C   0  0  0  0  0  0  0  0  0  0  0  0
   -2.9610   15.3590   -0.0810 C   0  0  0  0  0  0  0  0  0  0  0  0
   -2.2730   15.5460   -3.0000 I   0  0  0  0  0  0  0  0  0  0  0  0
  1  2  1  0
  2  3  2  0
  1  4  1  0
  2  5  1  0
  4  6  1  0
  5  7  1  0
  5  8  1  0
  6  9  1  0
  6 10  2  0
 10 11  1  0
  9 12  1  0
 11 12  2  0
 12 13  1  0
 11 14  1  0
 13 15  2  0
 14 16  2  0
 15 16  1  0
 15 17  1  0
M  END
>  <%Rank>  (134) 
52.777778

>  <N_hits>  (134) 
2

>  <submitter_name>  (134) 
nan

>  <original SMILES>  (134) 
nan

>  <∆G_unbound>  (134) 
0.807218

>  <∆G_bound>  (134) 
-3.539557

>  <regarded>  (134) 
mArh-x0471_0_A,mArh-x0837_0_A

>  <ref_pdb>  (134) 
nan

>  <smiles>  (134) 
CC(C)C(=O)NCc1nc2ccc(I)cc2[nH]1

>  <submitter_email>  (134) 
nan

>  <disregarded>  (134) 


>  <LE>  (134) 
-0.255693

>  <submitter_institution>  (134) 
nan

>  <ref_mols>  (134) 
mArh-x0471_0_A,mArh-x0837_0_A

>  <N_constrained_atoms>  (134) 
17.0

>  <ref_url>  (134) 
nan

>  <method>  (134) 
nan

>  <comRMSD>  (134) 
0.527106

>  <N_unconstrained_atoms>  (134) 
0.0

>  <∆∆G>  (134) 
-4.346775

>  <runtime>  (134) 
20.071507

>  <generation_date>  (134) 
nan

$$$$
mArh-3gqe_A_0_A-mArh-x0797_0_B
     RDKit          3D

 30 31  0  0  0  0  0  0  0  0999 V2000
   -2.1780   18.5730   -6.5750 C   0  0  0  0  0  0  0  0  0  0  0  0
   -2.0090   20.0340   -6.3620 N   0  0  0  0  0  0  0  0  0  0  0  0
   -3.2200   20.7720   -6.7810 C   0  0  0  0  0  0  0  0  0  0  0  0
   -2.2890   17.7470   -5.3150 C   0  0  0  0  0  0  0  0  0  0  0  0
   -0.7930   20.4760   -7.0480 C   0  0  0  0  0  0  0  0  0  0  0  0
   -2.8240   16.6570   -5.1620 O   0  0  0  0  0  0  0  0  0  0  0  0
   -1.7410   18.4200   -4.3030 O   0  0  0  0  0  0  0  0  0  0  0  0
   -3.1850   22.2400   -7.2070 C   0  0  0  0  0  0  0  0  0  0  0  0
   -0.7540   20.1270   -8.5090 C   0  0  0  0  0  0  0  0  0  0  0  0
   -4.2290   22.3380   -8.2070 O   0  0  0  0  0  0  0  0  0  0  0  0
   -0.5980   18.7280   -8.7070 O   0  0  0  0  0  0  0  0  0  0  0  0
   -4.6920   23.6500   -8.5040 C   0  0  0  0  0  0  0  0  0  0  0  0
   -6.2200   23.7370   -8.7040 C   0  0  0  0  0  0  0  0  0  0  0  0
   -6.7730   24.5730   -9.8960 C   0  0  0  0  0  0  0  0  0  0  0  0
   -7.8210   25.6470   -9.5200 C   0  0  0  0  0  0  0  0  0  0  0  0
   -8.5440   26.3270  -10.6030 N   0  0  0  0  0  0  0  0  0  0  0  0
   -8.6120   25.5920  -11.8630 C   0  0  0  0  0  0  0  0  0  0  0  0
   -8.0170   27.6910  -10.8890 C   0  0  0  0  0  0  0  0  0  0  0  0
   -7.4970   26.2610  -12.6240 C   0  0  2  0  0  0  0  0  0  0  0  0
   -7.7800   27.7310  -12.3900 C   0  0  2  0  0  0  0  0  0  0  0  0
   -7.4460   25.8840  -14.0700 C   0  0  0  0  0  0  0  0  0  0  0  0
   -6.6510   28.5680  -12.9450 C   0  0  0  0  0  0  0  0  0  0  0  0
   -8.4490   26.3780  -14.8330 O   0  0  0  0  0  0  0  0  0  0  0  0
   -6.5620   25.1810  -14.5290 O   0  0  0  0  0  0  0  0  0  0  0  0
   -6.7700   29.5500  -13.9830 C   0  0  0  0  0  0  0  0  0  0  0  0
   -5.3940   28.2760  -12.3340 C   0  0  0  0  0  0  0  0  0  0  0  0
   -8.0680   29.9030  -14.6590 C   0  0  0  0  0  0  0  0  0  0  0  0
   -4.2240   28.9080  -12.7100 C   0  0  0  0  0  0  0  0  0  0  0  0
   -5.6270   30.2430  -14.4290 C   0  0  0  0  0  0  0  0  0  0  0  0
   -4.2900   29.9480  -13.8070 C   0  0  0  0  0  0  0  0  0  0  0  0
  1  2  1  0
  2  3  1  0
  1  4  1  0
  2  5  1  0
  4  6  2  0
  4  7  1  0
  3  8  1  0
  5  9  1  0
  8 10  1  0
  9 11  1  0
 10 12  1  0
 12 13  1  0
 13 14  1  0
 14 15  1  0
 15 16  1  0
 16 17  1  0
 16 18  1  0
 17 19  1  0
 18 20  1  0
 19 20  1  0
 19 21  1  6
 20 22  1  1
 21 23  1  0
 21 24  2  0
 22 25  2  0
 22 26  1  0
 25 27  1  0
 26 28  2  0
 25 29  1  0
 28 30  1  0
 29 30  2  0
M  END
>  <%Rank>  (135) 
53.174603

>  <N_hits>  (135) 
2

>  <submitter_name>  (135) 
nan

>  <original SMILES>  (135) 
nan

>  <∆G_unbound>  (135) 
2.45717

>  <∆G_bound>  (135) 
-6.330907

>  <regarded>  (135) 
mArh-3gqe_A_0_A,mArh-x0797_0_B

>  <ref_pdb>  (135) 
nan

>  <smiles>  (135) 
Cc1ccccc1C1CN(CCCCOCCN(CCO)CC(=O)O)CC1C(=O)O

>  <submitter_email>  (135) 
nan

>  <disregarded>  (135) 


>  <LE>  (135) 
-0.292936

>  <submitter_institution>  (135) 
nan

>  <ref_mols>  (135) 
mArh-3gqe_A_0_A,mArh-x0797_0_B

>  <N_constrained_atoms>  (135) 
26.0

>  <ref_url>  (135) 
nan

>  <method>  (135) 
nan

>  <comRMSD>  (135) 
0.631968

>  <N_unconstrained_atoms>  (135) 
4.0

>  <∆∆G>  (135) 
-8.788076

>  <runtime>  (135) 
25.180016

>  <generation_date>  (135) 
nan

$$$$
mArh-x1018_0_A-mArh-5cb5_I_0_I
     RDKit          3D

 41 45  0  0  0  0  0  0  0  0999 V2000
   -8.1740   14.8270    0.3860 Cl  0  0  0  0  0  0  0  0  0  0  0  0
   -6.5480   14.2850   -0.0940 C   0  0  2  0  0  0  0  0  0  0  0  0
   -5.6340   14.1350    1.0580 C   0  0  0  0  0  0  0  0  0  0  0  0
   -5.9410   15.0860   -1.1700 N   0  0  0  0  0  0  0  0  0  0  0  0
   -4.6290   14.6070   -1.5940 N   0  0  0  0  0  0  0  0  0  0  0  0
   -4.3300   13.9260    0.8280 C   0  0  0  0  0  0  0  0  0  0  0  0
   -3.8210   15.5010   -2.3890 N   0  0  0  0  0  0  0  0  0  0  0  0
   -3.7900   13.8500   -0.6080 C   0  0  2  0  0  0  0  0  0  0  0  0
   -2.3690   14.4690   -0.8030 C   0  0  1  0  0  0  0  0  0  0  0  0
   -2.3960   15.0470   -2.3100 C   0  0  2  0  0  0  0  0  0  0  0  0
   -1.4080   16.1040   -2.6060 O   0  0  0  0  0  0  0  0  0  0  0  0
   -2.0740   14.0080   -3.5200 C   0  0  2  0  0  0  0  0  0  0  0  0
   -2.2890   15.3240    0.5420 C   0  0  2  0  0  0  0  0  0  0  0  0
   -1.1720   13.5540   -0.6450 C   0  0  0  0  0  0  0  0  0  0  0  0
   -1.4570   12.7620   -3.1710 O   0  0  0  0  0  0  0  0  0  0  0  0
   -3.3780   16.2080    0.9420 N   0  0  0  0  0  0  0  0  0  0  0  0
   -1.1650   16.1480   -4.0460 C   0  0  2  0  0  0  0  0  0  0  0  0
   -1.1250   14.7040   -4.5200 C   0  0  1  0  0  0  0  0  0  0  0  0
   -1.1290   15.9840    0.7570 N   0  0  0  0  0  0  0  0  0  0  0  0
   -0.4190   13.8040    0.5770 N   0  0  0  0  0  0  0  0  0  0  0  0
   -0.0400   17.0830   -4.5290 C   0  0  0  0  0  0  0  0  0  0  0  0
    0.1760   14.1250   -4.6820 O   0  0  0  0  0  0  0  0  0  0  0  0
    0.0340   15.1630    0.6100 C   0  0  0  0  0  0  0  0  0  0  0  0
   -0.2230   17.4430   -5.9040 O   0  0  0  0  0  0  0  0  0  0  0  0
   -1.6060   18.2090   -6.1920 P   0  0  1  0  0  0  0  0  0  0  0  0
   -2.6450   17.4670   -6.9490 O   0  0  0  0  0  0  0  0  0  0  0  0
   -2.0490   18.5140   -4.7010 O   0  0  0  0  0  0  0  0  0  0  0  0
   -1.2460   19.6400   -6.6910 O   0  0  0  0  0  0  0  0  0  0  0  0
   -0.2430   19.9300   -7.8660 P   0  0  1  0  0  0  0  0  0  0  0  0
    1.0720   20.5020   -7.5100 O   0  0  0  0  0  0  0  0  0  0  0  0
   -0.1760   18.5600   -8.7030 O   0  0  0  0  0  0  0  0  0  0  0  0
   -1.1930   20.8300   -8.7550 O   0  0  0  0  0  0  0  0  0  0  0  0
   -1.9060   21.8920   -8.1430 C   0  0  0  0  0  0  0  0  0  0  0  0
   -3.2870   21.9920   -8.7770 C   0  0  2  0  0  0  0  0  0  0  0  0
   -3.9470   23.3460   -8.6070 C   0  0  1  0  0  0  0  0  0  0  0  0
   -4.1990   21.0750   -8.1920 O   0  0  0  0  0  0  0  0  0  0  0  0
   -4.8560   23.6870   -9.6520 O   0  0  0  0  0  0  0  0  0  0  0  0
   -5.1600   21.7820   -7.3960 C   0  0  2  0  0  0  0  0  0  0  0  0
   -4.6240   23.1860   -7.2530 C   0  0  2  0  0  0  0  0  0  0  0  0
   -5.2540   21.1860   -6.1060 O   0  0  0  0  0  0  0  0  0  0  0  0
   -5.6780   24.1170   -7.0330 O   0  0  0  0  0  0  0  0  0  0  0  0
  2  1  1  1
  2  3  1  0
  2  4  1  0
  4  5  1  0
  3  6  2  0
  5  7  1  0
  5  8  1  0
  8  6  1  1
  8  9  1  0
 10  7  1  6
  9 10  1  0
 10 11  1  0
 10 12  1  0
  9 13  1  0
  9 14  1  6
 12 15  1  1
 13 16  1  6
 11 17  1  0
 12 18  1  0
 17 18  1  0
 13 19  1  0
 14 20  1  0
 17 21  1  1
 18 22  1  1
 19 23  1  0
 20 23  1  0
 21 24  1  0
 24 25  1  0
 25 26  2  0
 25 27  1  1
 25 28  1  0
 28 29  1  0
 29 30  2  0
 29 31  1  6
 29 32  1  0
 32 33  1  0
 34 33  1  1
 34 35  1  0
 34 36  1  0
 35 37  1  6
 36 38  1  0
 35 39  1  0
 38 39  1  0
 38 40  1  1
 39 41  1  6
M  END
>  <%Rank>  (136) 
53.571429

>  <N_hits>  (136) 
2

>  <submitter_name>  (136) 
nan

>  <original SMILES>  (136) 
nan

>  <∆G_unbound>  (136) 
8.278861

>  <∆G_bound>  (136) 
-11.273381

>  <regarded>  (136) 
mArh-x1018_0_A,mArh-5cb5_I_0_I

>  <ref_pdb>  (136) 
nan

>  <smiles>  (136) 
NC1NCNCC12C1C=CC(Cl)NN1NC21OC(CO[P@@](=O)(O)O[P@@](=O)(O)OCC2OC(O)C(O)C2O)C(O)C1O

>  <submitter_email>  (136) 
nan

>  <disregarded>  (136) 


>  <LE>  (136) 
-0.476884

>  <submitter_institution>  (136) 
nan

>  <ref_mols>  (136) 
mArh-x1018_0_A,mArh-5cb5_I_0_I

>  <N_constrained_atoms>  (136) 
41.0

>  <ref_url>  (136) 
nan

>  <method>  (136) 
nan

>  <comRMSD>  (136) 
0.961293

>  <N_unconstrained_atoms>  (136) 
0.0

>  <∆∆G>  (136) 
-19.552242

>  <runtime>  (136) 
29.713364

>  <generation_date>  (136) 
nan

$$$$
mArh-2fav_B_0_B-mArh-x0918_0_B
     RDKit          3D

 44 48  0  0  0  0  0  0  0  0999 V2000
   -1.2150   18.1900   -5.8340 P   0  0  0  0  0  0  0  0  0  0  0  0
   -0.5160   16.8040   -5.4590 O   0  0  0  0  0  0  0  0  0  0  0  0
    0.8270   16.7880   -4.9990 C   0  0  0  0  0  0  0  0  0  0  0  0
   -1.7870   18.7660   -4.5930 O   0  0  0  0  0  0  0  0  0  0  0  0
   -2.4660   17.9240   -6.7990 O   0  0  0  0  0  0  0  0  0  0  0  0
   -0.2770   19.3450   -6.3420 O   0  0  0  0  0  0  0  0  0  0  0  0
   -0.0680   19.8590   -7.8240 P   0  0  0  0  0  0  0  0  0  0  0  0
    1.1850   20.8230   -7.5340 O   0  0  0  0  0  0  0  0  0  0  0  0
    0.1780   18.6700   -8.6740 O   0  0  0  0  0  0  0  0  0  0  0  0
   -1.6790   20.3130   -7.7680 O   0  0  0  0  0  0  0  0  0  0  0  0
    1.1650   15.5950   -4.2050 C   0  0  1  0  0  0  0  0  0  0  0  0
   -1.6280   21.6160   -7.2530 C   0  0  0  0  0  0  0  0  0  0  0  0
    0.2590   15.4810   -3.0980 O   0  0  0  0  0  0  0  0  0  0  0  0
    1.1480   14.3350   -4.8600 C   0  0  1  0  0  0  0  0  0  0  0  0
    2.3540   13.7020   -4.8320 O   0  0  0  0  0  0  0  0  0  0  0  0
    0.1820   13.4130   -4.1800 C   0  0  1  0  0  0  0  0  0  0  0  0
   -0.1360   14.1460   -2.9230 C   0  0  2  0  0  0  0  0  0  0  0  0
   -3.0680   22.0910   -7.0400 C   0  0  1  0  0  0  0  0  0  0  0  0
   -0.7660   12.9750   -5.0170 O   0  0  0  0  0  0  0  0  0  0  0  0
   -3.5540   23.1910   -7.6490 C   0  0  1  0  0  0  0  0  0  0  0  0
   -4.0830   21.2250   -7.4100 O   0  0  0  0  0  0  0  0  0  0  0  0
   -1.3560   14.1060   -2.2480 N   0  0  0  0  0  0  0  0  0  0  0  0
   -4.3070   22.8870   -8.7750 O   0  0  0  0  0  0  0  0  0  0  0  0
   -5.0900   21.9250   -6.6660 C   0  0  0  0  0  0  0  0  0  0  0  0
   -4.5860   23.3320   -6.5750 C   0  0  2  0  0  0  0  0  0  0  0  0
   -1.3270   14.6150   -0.8940 C   0  0  1  0  0  0  0  0  0  0  0  0
   -2.5030   14.8010   -2.8070 C   0  0  0  0  0  0  0  0  0  0  0  0
   -5.4840   24.3030   -6.8650 O   0  0  0  0  0  0  0  0  0  0  0  0
   -5.2200   23.6730   -9.3630 C   0  0  0  0  0  0  0  0  0  0  0  0
   -2.7220   14.5760   -0.5450 C   0  0  2  0  0  0  0  0  0  0  0  0
   -0.5070   13.8490    0.0140 N   0  0  0  0  0  0  0  0  0  0  0  0
   -3.2690   15.3050   -1.6630 N   0  0  0  0  0  0  0  0  0  0  0  0
   -5.0030   24.3800  -10.5700 C   0  0  0  0  0  0  0  0  0  0  0  0
   -2.9210   15.1590    0.8240 C   0  0  1  0  0  0  0  0  0  0  0  0
   -0.7040   14.4090    1.3270 C   0  0  0  0  0  0  0  0  0  0  0  0
   -4.2970   14.9090    1.2160 N   0  0  0  0  0  0  0  0  0  0  0  0
   -3.7140   24.6730  -11.1410 N   0  0  0  0  0  0  0  0  0  0  0  0
   -2.0890   14.4020    1.7040 N   0  0  0  0  0  0  0  0  0  0  0  0
   -3.6540   25.2620  -12.4190 C   0  0  0  0  0  0  0  0  0  0  0  0
   -4.9620   25.1250  -13.1690 C   0  0  0  0  0  0  0  0  0  0  0  0
   -2.5520   25.9040  -12.9670 C   0  0  0  0  0  0  0  0  0  0  0  0
   -5.0240   25.6700  -14.4400 C   0  0  0  0  0  0  0  0  0  0  0  0
   -2.7420   26.4160  -14.2760 C   0  0  0  0  0  0  0  0  0  0  0  0
   -3.9160   26.2960  -14.9540 N   0  0  0  0  0  0  0  0  0  0  0  0
  1  2  1  0
  2  3  1  0
  1  4  1  0
  1  5  1  0
  1  6  1  0
  6  7  1  0
  7  8  1  0
  7  9  1  0
  7 10  1  0
 11  3  1  6
 10 12  1  0
 11 13  1  0
 11 14  1  0
 14 15  1  1
 14 16  1  0
 13 17  1  0
 16 17  1  0
 18 12  1  6
 16 19  1  6
 18 20  1  0
 18 21  1  0
 17 22  1  6
 20 23  1  6
 21 24  1  0
 20 25  1  0
 24 25  1  0
 22 26  1  0
 22 27  1  0
 25 28  1  6
 23 29  1  0
 26 30  1  0
 26 31  1  1
 27 32  1  0
 30 32  1  6
 29 33  1  0
 30 34  1  0
 31 35  1  0
 34 36  1  1
 33 37  1  0
 34 38  1  0
 35 38  1  0
 37 39  1  0
 39 40  2  0
 39 41  1  0
 40 42  1  0
 41 43  2  0
 42 44  2  0
 43 44  1  0
M  CHG  2   4  -1   8  -1
M  END
>  <%Rank>  (137) 
53.968254

>  <N_hits>  (137) 
2

>  <submitter_name>  (137) 
nan

>  <original SMILES>  (137) 
nan

>  <∆G_unbound>  (137) 
4.455245

>  <∆G_bound>  (137) 
-12.723805

>  <regarded>  (137) 
mArh-2fav_B_0_B,mArh-x0918_0_B

>  <ref_pdb>  (137) 
nan

>  <smiles>  (137) 
NC1NCNC2C1NCN2C1OC(CO[PH]([O-])(O)O[PH]([O-])(O)OCC2OCC(O)C2OCCNc2ccncc2)C(O)C1O

>  <submitter_email>  (137) 
nan

>  <disregarded>  (137) 


>  <LE>  (137) 
-0.390433

>  <submitter_institution>  (137) 
nan

>  <ref_mols>  (137) 
mArh-2fav_B_0_B,mArh-x0918_0_B

>  <N_constrained_atoms>  (137) 
42.0

>  <ref_url>  (137) 
nan

>  <method>  (137) 
nan

>  <comRMSD>  (137) 
0.903353

>  <N_unconstrained_atoms>  (137) 
2.0

>  <∆∆G>  (137) 
-17.17905

>  <runtime>  (137) 
31.786834

>  <generation_date>  (137) 
nan

$$$$
mArh-x0631_0_A-mArh-5cms_J_9_J
     RDKit          3D

 55 60  0  0  0  0  0  0  0  0999 V2000
   -2.7310    8.2300   -7.9630 C   0  0  0  0  0  0  0  0  0  0  0  0
   -1.4360    7.9850   -7.1900 C   0  0  0  0  0  0  0  0  0  0  0  0
   -0.9530    9.3130   -6.6450 C   0  0  1  0  0  0  0  0  0  0  0  0
   -0.5600    9.2310   -5.1530 C   0  0  0  0  0  0  0  0  0  0  0  0
   -0.0790    9.9360   -7.6380 N   0  0  0  0  0  0  0  0  0  0  0  0
   -0.4070   10.5420   -4.3400 C   0  0  0  0  0  0  0  0  0  0  0  0
    0.5240   11.0930   -7.4010 N   0  0  0  0  0  0  0  0  0  0  0  0
    0.1450    9.3990   -8.8720 N   0  0  0  0  0  0  0  0  0  0  0  0
    0.1100   11.5950   -5.3500 C   0  0  0  0  0  0  0  0  0  0  0  0
    1.1500   11.3580   -8.5120 N   0  0  0  0  0  0  0  0  0  0  0  0
    0.9200   10.3530   -9.3980 C   0  0  0  0  0  0  0  0  0  0  0  0
    1.4830   10.4920  -10.6410 N   0  0  0  0  0  0  0  0  0  0  0  0
    0.6480   12.7630   -4.6920 O   0  0  0  0  0  0  0  0  0  0  0  0
    2.3220    9.7300  -11.4120 C   0  0  0  0  0  0  0  0  0  0  0  0
   -0.0670   13.9760   -5.0240 C   0  0  2  0  0  0  0  0  0  0  0  0
    2.5790    8.5850  -11.0210 O   0  0  0  0  0  0  0  0  0  0  0  0
    2.9060   10.2910  -12.6270 C   0  0  0  0  0  0  0  0  0  0  0  0
    0.5610   15.1070   -4.4290 C   0  0  1  0  0  0  0  0  0  0  0  0
   -1.4590   13.8650   -4.4000 C   0  0  1  0  0  0  0  0  0  0  0  0
    0.4380   16.4440   -5.2380 C   0  0  0  0  0  0  0  0  0  0  0  0
   -1.6290   12.5920   -3.7600 O   0  0  0  0  0  0  0  0  0  0  0  0
    3.8920    9.5740  -13.2640 O   0  0  0  0  0  0  0  0  0  0  0  0
    2.6910   11.4690  -13.3330 C   0  0  0  0  0  0  0  0  0  0  0  0
   -0.0540   15.2940   -3.1520 O   0  0  0  0  0  0  0  0  0  0  0  0
   -1.4090   14.9890   -3.3930 C   0  0  2  0  0  0  0  0  0  0  0  0
   -0.6310   17.3180   -4.8180 O   0  0  0  0  0  0  0  0  0  0  0  0
    3.5820   11.4660  -14.4380 C   0  0  0  0  0  0  0  0  0  0  0  0
    4.2880   10.2910  -14.3480 C   0  0  0  0  0  0  0  0  0  0  0  0
   -2.1910   14.9850   -2.1660 N   0  0  0  0  0  0  0  0  0  0  0  0
   -1.5320   18.1970   -5.8540 P   0  0  1  0  0  0  0  0  0  0  0  0
   -1.7850   14.8560   -0.8580 C   0  0  0  0  0  0  0  0  0  0  0  0
   -3.5490   15.1680   -2.1640 C   0  0  0  0  0  0  0  0  0  0  0  0
   -2.3710   17.4230   -6.8110 O   0  0  0  0  0  0  0  0  0  0  0  0
   -2.4470   19.0150   -4.8630 O   0  0  0  0  0  0  0  0  0  0  0  0
   -0.8260   19.5260   -6.3580 O   0  0  0  0  0  0  0  0  0  0  0  0
   -2.9570   15.0130   -0.1310 C   0  0  0  0  0  0  0  0  0  0  0  0
   -0.5530   14.6540   -0.3500 N   0  0  0  0  0  0  0  0  0  0  0  0
   -4.0460   15.1890   -0.9570 N   0  0  0  0  0  0  0  0  0  0  0  0
   -0.0730   19.5440   -7.7130 P   0  0  1  0  0  0  0  0  0  0  0  0
   -2.8550   14.9850    1.2590 C   0  0  0  0  0  0  0  0  0  0  0  0
   -0.5790   14.6240    1.0010 C   0  0  0  0  0  0  0  0  0  0  0  0
    0.9790   18.5460   -7.7310 O   0  0  0  0  0  0  0  0  0  0  0  0
   -1.1920   19.2900   -8.7710 O   0  0  0  0  0  0  0  0  0  0  0  0
    0.3650   21.0190   -8.1870 O   0  0  0  0  0  0  0  0  0  0  0  0
   -3.9670   15.1870    2.0570 N   0  0  0  0  0  0  0  0  0  0  0  0
   -1.6390   14.7760    1.8240 N   0  0  0  0  0  0  0  0  0  0  0  0
   -0.3440   22.1900   -7.8390 C   0  0  0  0  0  0  0  0  0  0  0  0
   -1.7780   22.1940   -8.3480 C   0  0  1  0  0  0  0  0  0  0  0  0
   -2.4170   23.5740   -8.4000 C   0  0  1  0  0  0  0  0  0  0  0  0
   -2.0400   21.6090   -9.6130 O   0  0  0  0  0  0  0  0  0  0  0  0
   -1.5360   24.5330   -8.8910 O   0  0  0  0  0  0  0  0  0  0  0  0
   -3.3980   21.9850   -9.8280 C   0  0  2  0  0  0  0  0  0  0  0  0
   -3.6380   23.3610   -9.2920 C   0  0  2  0  0  0  0  0  0  0  0  0
   -4.1940   21.2210   -8.9820 O   0  0  0  0  0  0  0  0  0  0  0  0
   -3.9100   24.3300  -10.2930 O   0  0  0  0  0  0  0  0  0  0  0  0
  1  2  1  0
  3  2  1  6
  3  4  1  0
  3  5  1  0
  4  6  1  0
  5  7  1  0
  5  8  1  0
  6  9  1  0
  7 10  2  0
  8 11  2  0
 10 11  1  0
 11 12  1  0
  9 13  1  0
 12 14  1  0
 15 13  1  1
 14 16  2  0
 14 17  1  0
 15 18  1  0
 15 19  1  0
 18 20  1  6
 19 21  1  1
 17 22  1  0
 17 23  2  0
 18 24  1  0
 19 25  1  0
 24 25  1  0
 20 26  1  0
 23 27  1  0
 22 28  1  0
 27 28  2  0
 25 29  1  1
 26 30  1  0
 29 31  1  0
 29 32  1  0
 30 33  2  0
 30 34  1  1
 30 35  1  0
 31 36  2  0
 31 37  1  0
 32 38  2  0
 36 38  1  0
 35 39  1  0
 36 40  1  0
 37 41  2  0
 39 42  2  0
 39 43  1  6
 39 44  1  0
 40 45  1  0
 40 46  2  0
 41 46  1  0
 44 47  1  0
 48 47  1  6
 48 49  1  0
 48 50  1  0
 49 51  1  6
 50 52  1  0
 49 53  1  0
 52 53  1  0
 52 54  1  1
 53 55  1  6
M  END
>  <%Rank>  (138) 
54.365079

>  <N_hits>  (138) 
2

>  <submitter_name>  (138) 
nan

>  <original SMILES>  (138) 
nan

>  <∆G_unbound>  (138) 
2.969106

>  <∆G_bound>  (138) 
-10.517729

>  <regarded>  (138) 
mArh-x0631_0_A,mArh-5cms_J_9_J

>  <ref_pdb>  (138) 
nan

>  <smiles>  (138) 
CCC(CCCOC1C(CO[P@@](=O)(O)O[P@@](=O)(O)OCC2OC(O)C(O)C2O)OC(n2cnc3c(N)ncnc32)C1O)n1nnc(NC(=O)c2ccco2)n1

>  <submitter_email>  (138) 
nan

>  <disregarded>  (138) 


>  <LE>  (138) 
-0.245215

>  <submitter_institution>  (138) 
nan

>  <ref_mols>  (138) 
mArh-x0631_0_A,mArh-5cms_J_9_J

>  <N_constrained_atoms>  (138) 
52.0

>  <ref_url>  (138) 
nan

>  <method>  (138) 
nan

>  <comRMSD>  (138) 
0.898617

>  <N_unconstrained_atoms>  (138) 
3.0

>  <∆∆G>  (138) 
-13.486835

>  <runtime>  (138) 
68.947557

>  <generation_date>  (138) 
nan

$$$$
mArh-5cb5_P_0_P-mArh-x0685_0_A
     RDKit          3D

 47 51  0  0  0  0  0  0  0  0999 V2000
   -1.4700   18.4530   -5.9560 P   0  0  1  0  0  0  0  0  0  0  0  0
   -0.6280   17.7540   -4.8090 O   0  0  0  0  0  0  0  0  0  0  0  0
    0.3760   16.8410   -5.2080 C   0  0  0  0  0  0  0  0  0  0  0  0
   -2.3690   17.5690   -6.7740 O   0  0  0  0  0  0  0  0  0  0  0  0
   -2.2500   19.5580   -5.1090 O   0  0  0  0  0  0  0  0  0  0  0  0
   -0.2570   19.1700   -6.6240 O   0  0  0  0  0  0  0  0  0  0  0  0
   -0.3040   19.9810   -7.9290 P   0  0  1  0  0  0  0  0  0  0  0  0
    0.6960   21.0800   -7.9980 O   0  0  0  0  0  0  0  0  0  0  0  0
   -0.0230   18.8100   -8.9730 O   0  0  0  0  0  0  0  0  0  0  0  0
   -1.8300   20.3400   -8.1320 O   0  0  0  0  0  0  0  0  0  0  0  0
   -0.3800   15.5770   -4.9610 C   0  0  2  0  0  0  0  0  0  0  0  0
   -2.2150   21.5110   -8.7980 C   0  0  0  0  0  0  0  0  0  0  0  0
   -0.9010   15.7490   -3.6570 O   0  0  0  0  0  0  0  0  0  0  0  0
    0.2490   14.2020   -4.9450 C   0  0  1  0  0  0  0  0  0  0  0  0
    1.6490   14.1340   -4.7360 O   0  0  0  0  0  0  0  0  0  0  0  0
   -0.5160   13.5520   -3.7790 C   0  0  1  0  0  0  0  0  0  0  0  0
   -1.6580   14.5650   -3.4220 C   0  0  1  0  0  0  0  0  0  0  0  0
   -3.3150   22.1480   -7.9950 C   0  0  1  0  0  0  0  0  0  0  0  0
   -0.8440   12.2340   -4.1380 O   0  0  0  0  0  0  0  0  0  0  0  0
   -3.7740   23.5840   -8.1290 C   0  0  1  0  0  0  0  0  0  0  0  0
   -4.5340   21.4400   -8.1200 O   0  0  0  0  0  0  0  0  0  0  0  0
   -2.1990   14.6780   -2.0550 N   0  0  0  0  0  0  0  0  0  0  0  0
   -2.7840   14.5820   -4.4800 C   0  0  0  0  0  0  0  0  0  0  0  0
   -4.3940   23.9760   -9.3490 O   0  0  0  0  0  0  0  0  0  0  0  0
   -5.3360   22.0930   -7.1470 C   0  0  2  0  0  0  0  0  0  0  0  0
   -4.7340   23.5030   -6.9490 C   0  0  2  0  0  0  0  0  0  0  0  0
   -1.4460   14.7860   -0.8330 C   0  0  0  0  0  0  0  0  0  0  0  0
   -3.4940   14.7240   -1.4840 C   0  0  0  0  0  0  0  0  0  0  0  0
   -4.1340   14.6200   -3.9110 N   0  0  0  0  0  0  0  0  0  0  0  0
   -5.3570   21.3600   -5.9350 O   0  0  0  0  0  0  0  0  0  0  0  0
   -5.7750   24.4680   -6.9540 O   0  0  0  0  0  0  0  0  0  0  0  0
   -2.3740   14.8520    0.1580 C   0  0  0  0  0  0  0  0  0  0  0  0
   -0.1630   14.8330   -0.5250 N   0  0  0  0  0  0  0  0  0  0  0  0
   -3.4850   14.8210   -0.2690 N   0  0  0  0  0  0  0  0  0  0  0  0
   -4.8380   14.7440   -1.2080 C   0  0  0  0  0  0  0  0  0  0  0  0
   -2.1630   14.9390    1.4540 C   0  0  0  0  0  0  0  0  0  0  0  0
   -0.0430   14.9310    0.8210 C   0  0  0  0  0  0  0  0  0  0  0  0
   -4.6230   14.7530    0.1650 C   0  0  0  0  0  0  0  0  0  0  0  0
   -6.1240   14.7580   -1.6580 C   0  0  0  0  0  0  0  0  0  0  0  0
   -3.2110   15.0060    2.3590 N   0  0  0  0  0  0  0  0  0  0  0  0
   -0.9530   14.9600    1.8080 N   0  0  0  0  0  0  0  0  0  0  0  0
   -5.5890   14.7700    1.0790 C   0  0  0  0  0  0  0  0  0  0  0  0
   -7.1550   14.7730   -0.7210 N   0  0  0  0  0  0  0  0  0  0  0  0
   -6.8500   14.7770    0.6230 C   0  0  0  0  0  0  0  0  0  0  0  0
   -7.8680   14.7950    1.5480 N   0  0  0  0  0  0  0  0  0  0  0  0
   -7.7890   13.7820    2.5770 C   0  0  0  0  0  0  0  0  0  0  0  0
   -7.8180   14.4210    3.9420 C   0  0  0  0  0  0  0  0  0  0  0  0
  1  2  1  0
  2  3  1  0
  1  4  2  0
  1  5  1  1
  1  6  1  0
  6  7  1  0
  7  8  2  0
  7  9  1  6
  7 10  1  0
 11  3  1  1
 10 12  1  0
 11 13  1  0
 11 14  1  0
 14 15  1  1
 14 16  1  0
 13 17  1  0
 16 17  1  0
 18 12  1  6
 16 19  1  6
 18 20  1  0
 18 21  1  0
 17 22  1  0
 17 23  1  6
 20 24  1  6
 21 25  1  0
 20 26  1  0
 25 26  1  0
 22 27  1  0
 22 28  1  0
 23 29  1  0
 25 30  1  1
 26 31  1  6
 27 32  1  0
 27 33  2  0
 28 34  2  0
 32 34  1  0
 28 35  1  0
 32 36  2  0
 33 37  1  0
 35 38  2  0
 35 39  1  0
 36 40  1  0
 36 41  1  0
 37 41  2  0
 38 42  1  0
 39 43  2  0
 42 44  2  0
 43 44  1  0
 44 45  1  0
 45 46  1  0
 46 47  1  0
M  END
>  <%Rank>  (139) 
54.761905

>  <N_hits>  (139) 
2

>  <submitter_name>  (139) 
nan

>  <original SMILES>  (139) 
nan

>  <∆G_unbound>  (139) 
7.940495

>  <∆G_bound>  (139) 
-13.474856

>  <regarded>  (139) 
mArh-5cb5_P_0_P,mArh-x0685_0_A

>  <ref_pdb>  (139) 
nan

>  <smiles>  (139) 
CCNc1ccc(-c2nc3c(N)ncnc3n2C2(CN)OC(CO[P@@](=O)(O)O[P@@](=O)(O)OCC3OC(O)C(O)C3O)C(O)C2O)cn1

>  <submitter_email>  (139) 
nan

>  <disregarded>  (139) 


>  <LE>  (139) 
-0.455646

>  <submitter_institution>  (139) 
nan

>  <ref_mols>  (139) 
mArh-5cb5_P_0_P,mArh-x0685_0_A

>  <N_constrained_atoms>  (139) 
46.0

>  <ref_url>  (139) 
nan

>  <method>  (139) 
nan

>  <comRMSD>  (139) 
0.987992

>  <N_unconstrained_atoms>  (139) 
1.0

>  <∆∆G>  (139) 
-21.415351

>  <runtime>  (139) 
79.255996

>  <generation_date>  (139) 
nan

$$$$
mArh-5cms_R_17_R-mArh-x0962_1_A
     RDKit          3D

 42 46  0  0  0  0  0  0  0  0999 V2000
   -1.5660   17.9790   -5.9760 P   0  0  1  0  0  0  0  0  0  0  0  0
   -0.8310   16.6490   -5.5590 O   0  0  0  0  0  0  0  0  0  0  0  0
    0.5700   16.8050   -5.3730 C   0  0  0  0  0  0  0  0  0  0  0  0
   -2.6820   17.8430   -6.9350 O   0  0  0  0  0  0  0  0  0  0  0  0
   -1.9840   18.6600   -4.6030 O   0  0  0  0  0  0  0  0  0  0  0  0
   -0.3490   18.8610   -6.3830 O   0  0  0  0  0  0  0  0  0  0  0  0
   -0.0500   19.5760   -7.7230 P   0  0  1  0  0  0  0  0  0  0  0  0
    1.0240   20.6130   -7.6310 O   0  0  0  0  0  0  0  0  0  0  0  0
    0.2580   18.4160   -8.7650 O   0  0  0  0  0  0  0  0  0  0  0  0
   -1.4220   20.0450   -8.2870 O   0  0  0  0  0  0  0  0  0  0  0  0
    1.1150   15.5830   -4.6730 C   0  0  1  0  0  0  0  0  0  0  0  0
   -1.8880   21.2490   -7.7930 C   0  0  0  0  0  0  0  0  0  0  0  0
    0.5740   15.6940   -3.3560 O   0  0  0  0  0  0  0  0  0  0  0  0
    0.6870   14.2420   -5.2810 C   0  0  1  0  0  0  0  0  0  0  0  0
    1.8120   13.3540   -5.3950 O   0  0  0  0  0  0  0  0  0  0  0  0
   -0.3210   13.6560   -4.3050 C   0  0  2  0  0  0  0  0  0  0  0  0
   -0.0860   14.4770   -3.0180 C   0  0  2  0  0  0  0  0  0  0  0  0
   -1.9510   22.1440   -8.9640 C   0  0  2  0  0  0  0  0  0  0  0  0
   -0.0680   12.2580   -4.1520 O   0  0  0  0  0  0  0  0  0  0  0  0
   -2.4350   23.5290   -8.6190 C   0  0  1  0  0  0  0  0  0  0  0  0
   -2.8400   21.5970   -9.9420 O   0  0  0  0  0  0  0  0  0  0  0  0
   -1.1660   14.7760   -2.1050 N   0  0  0  0  0  0  0  0  0  0  0  0
   -1.4820   24.5210   -8.8640 O   0  0  0  0  0  0  0  0  0  0  0  0
   -4.0710   22.2520   -9.7190 C   0  0  2  0  0  0  0  0  0  0  0  0
   -3.7240   23.6830   -9.4420 C   0  0  2  0  0  0  0  0  0  0  0  0
   -1.0220   14.0460   -0.8890 C   0  0  2  0  0  0  0  0  0  0  0  0
   -2.5650   14.7210   -2.5200 C   0  0  0  0  0  0  0  0  0  0  0  0
   -4.6700   21.7390   -8.5480 O   0  0  0  0  0  0  0  0  0  0  0  0
   -3.6780   24.4330  -10.6580 O   0  0  0  0  0  0  0  0  0  0  0  0
   -2.4510   13.9450   -0.2790 C   0  0  2  0  0  0  0  0  0  0  0  0
    0.0410   14.6350   -0.0990 N   0  0  0  0  0  0  0  0  0  0  0  0
   -3.3480   14.5420   -1.2880 N   0  0  0  0  0  0  0  0  0  0  0  0
   -2.5260   14.5300    1.1720 C   0  0  2  0  0  0  0  0  0  0  0  0
   -0.2420   14.5580    1.2880 C   0  0  0  0  0  0  0  0  0  0  0  0
   -4.3130   15.5540   -0.8710 C   0  0  0  0  0  0  0  0  0  0  0  0
   -3.6590   15.3690    1.4720 N   0  0  0  0  0  0  0  0  0  0  0  0
   -1.4120   15.3630    1.4580 N   0  0  0  0  0  0  0  0  0  0  0  0
   -5.5110   15.0810   -0.1140 C   0  0  0  0  0  0  0  0  0  0  0  0
   -5.5150   14.7910    1.2330 N   0  0  0  0  0  0  0  0  0  0  0  0
   -6.8130   14.8340   -0.5070 C   0  0  0  0  0  0  0  0  0  0  0  0
   -6.7720   14.3980    1.5840 C   0  0  0  0  0  0  0  0  0  0  0  0
   -7.5820   14.4130    0.5500 N   0  0  0  0  0  0  0  0  0  0  0  0
  1  2  1  0
  2  3  1  0
  1  4  2  0
  1  5  1  1
  1  6  1  0
  6  7  1  0
  7  8  2  0
  7  9  1  6
  7 10  1  0
 11  3  1  6
 10 12  1  0
 11 13  1  0
 11 14  1  0
 14 15  1  1
 14 16  1  0
 13 17  1  0
 16 17  1  0
 18 12  1  1
 16 19  1  1
 18 20  1  0
 18 21  1  0
 17 22  1  6
 20 23  1  6
 21 24  1  0
 20 25  1  0
 24 25  1  0
 22 26  1  0
 22 27  1  0
 24 28  1  1
 25 29  1  6
 26 30  1  0
 26 31  1  1
 27 32  1  0
 30 32  1  6
 30 33  1  0
 31 34  1  0
 32 35  1  0
 33 36  1  6
 33 37  1  0
 34 37  1  0
 35 38  1  0
 38 39  1  0
 38 40  2  0
 39 41  1  0
 40 42  1  0
 41 42  2  0
M  END
>  <%Rank>  (140) 
55.15873

>  <N_hits>  (140) 
2

>  <submitter_name>  (140) 
nan

>  <original SMILES>  (140) 
nan

>  <∆G_unbound>  (140) 
5.515411

>  <∆G_bound>  (140) 
-8.602704

>  <regarded>  (140) 
mArh-5cms_R_17_R,mArh-x0962_1_A

>  <ref_pdb>  (140) 
nan

>  <smiles>  (140) 
NC1NCNC2C1N(Cc1cnc[nH]1)CN2C1OC(CO[P@@](=O)(O)O[P@@](=O)(O)OCC2OC(O)C(O)C2O)C(O)C1O

>  <submitter_email>  (140) 
nan

>  <disregarded>  (140) 


>  <LE>  (140) 
-0.336146

>  <submitter_institution>  (140) 
nan

>  <ref_mols>  (140) 
mArh-5cms_R_17_R,mArh-x0962_1_A

>  <N_constrained_atoms>  (140) 
42.0

>  <ref_url>  (140) 
nan

>  <method>  (140) 
nan

>  <comRMSD>  (140) 
0.915659

>  <N_unconstrained_atoms>  (140) 
0.0

>  <∆∆G>  (140) 
-14.118115

>  <runtime>  (140) 
46.775928

>  <generation_date>  (140) 
nan

$$$$
mArh-x0900_0_A-mArh-5cms_N_13_N
     RDKit          3D

 41 45  0  0  0  0  0  0  0  0999 V2000
   -6.9360   15.3620   -0.8260 O   0  0  0  0  0  0  0  0  0  0  0  0
   -5.8260   15.0040   -0.4680 C   0  0  0  0  0  0  0  0  0  0  0  0
   -5.3770   13.7430   -0.3710 N   0  0  0  0  0  0  0  0  0  0  0  0
   -4.6500   15.8170   -0.0280 C   0  0  0  0  0  0  0  0  0  0  0  0
   -3.9560   14.9440    1.0290 C   0  0  1  0  0  0  0  0  0  0  0  0
   -4.7030   13.6350    0.8830 C   0  0  0  0  0  0  0  0  0  0  0  0
   -2.5300   14.8460    0.6290 C   0  0  0  0  0  0  0  0  0  0  0  0
   -1.5450   14.7570    1.5860 N   0  0  0  0  0  0  0  0  0  0  0  0
   -2.1680   14.8310   -0.6990 C   0  0  0  0  0  0  0  0  0  0  0  0
   -0.8310   14.7350   -0.9750 C   0  0  0  0  0  0  0  0  0  0  0  0
   -0.2660   14.6780    1.1550 C   0  0  0  0  0  0  0  0  0  0  0  0
   -2.9190   14.8940   -1.8500 N   0  0  0  0  0  0  0  0  0  0  0  0
    0.1850   14.6590   -0.1160 N   0  0  0  0  0  0  0  0  0  0  0  0
   -0.7740   14.7300   -2.3170 N   0  0  0  0  0  0  0  0  0  0  0  0
   -2.0450   14.8280   -2.8120 C   0  0  0  0  0  0  0  0  0  0  0  0
    0.3830   14.6310   -3.1050 C   0  0  2  0  0  0  0  0  0  0  0  0
    0.7060   15.9450   -3.5890 O   0  0  0  0  0  0  0  0  0  0  0  0
    0.2610   13.6470   -4.2580 C   0  0  2  0  0  0  0  0  0  0  0  0
    1.3910   12.7990   -4.4830 O   0  0  0  0  0  0  0  0  0  0  0  0
    0.9660   15.8300   -4.9860 C   0  0  1  0  0  0  0  0  0  0  0  0
    0.1360   14.5870   -5.4180 C   0  0  1  0  0  0  0  0  0  0  0  0
    0.6490   17.2450   -5.5420 C   0  0  0  0  0  0  0  0  0  0  0  0
    0.7200   13.8050   -6.4460 O   0  0  0  0  0  0  0  0  0  0  0  0
   -0.4390   17.2680   -6.4510 O   0  0  0  0  0  0  0  0  0  0  0  0
   -1.7500   18.1600   -6.1930 P   0  0  1  0  0  0  0  0  0  0  0  0
   -2.9240   17.5530   -6.8370 O   0  0  0  0  0  0  0  0  0  0  0  0
   -1.7590   18.2620   -4.6130 O   0  0  0  0  0  0  0  0  0  0  0  0
   -1.3500   19.5930   -6.6950 O   0  0  0  0  0  0  0  0  0  0  0  0
   -0.4610   19.9350   -7.9520 P   0  0  1  0  0  0  0  0  0  0  0  0
    0.8180   20.6410   -7.7160 O   0  0  0  0  0  0  0  0  0  0  0  0
   -0.3070   18.5530   -8.7420 O   0  0  0  0  0  0  0  0  0  0  0  0
   -1.5260   20.7340   -8.8740 O   0  0  0  0  0  0  0  0  0  0  0  0
   -1.8490   22.0600   -8.4800 C   0  0  0  0  0  0  0  0  0  0  0  0
   -3.2230   22.6350   -8.9170 C   0  0  1  0  0  0  0  0  0  0  0  0
   -3.5560   23.1420  -10.3140 C   0  0  1  0  0  0  0  0  0  0  0  0
   -4.3680   21.8320   -8.6920 O   0  0  0  0  0  0  0  0  0  0  0  0
   -3.5160   22.1760  -11.3770 O   0  0  0  0  0  0  0  0  0  0  0  0
   -5.4220   22.7730   -9.0240 C   0  0  2  0  0  0  0  0  0  0  0  0
   -4.9850   23.5040  -10.2790 C   0  0  2  0  0  0  0  0  0  0  0  0
   -5.4930   23.7590   -8.0190 O   0  0  0  0  0  0  0  0  0  0  0  0
   -5.5460   23.0260  -11.5160 O   0  0  0  0  0  0  0  0  0  0  0  0
  1  2  2  0
  2  3  1  0
  2  4  1  0
  4  5  1  0
  3  6  1  0
  5  6  1  0
  5  7  1  6
  7  8  2  0
  7  9  1  0
  9 10  2  0
  8 11  1  0
  9 12  1  0
 10 13  1  0
 11 13  2  0
 10 14  1  0
 12 15  2  0
 14 15  1  0
 16 14  1  6
 16 17  1  0
 16 18  1  0
 18 19  1  6
 17 20  1  0
 18 21  1  0
 20 21  1  0
 20 22  1  6
 21 23  1  6
 22 24  1  0
 24 25  1  0
 25 26  2  0
 25 27  1  1
 25 28  1  0
 28 29  1  0
 29 30  2  0
 29 31  1  6
 29 32  1  0
 32 33  1  0
 34 33  1  6
 34 35  1  0
 34 36  1  0
 35 37  1  6
 36 38  1  0
 35 39  1  0
 38 39  1  0
 38 40  1  1
 39 41  1  6
M  END
>  <%Rank>  (141) 
55.555556

>  <N_hits>  (141) 
2

>  <submitter_name>  (141) 
nan

>  <original SMILES>  (141) 
nan

>  <∆G_unbound>  (141) 
4.680635

>  <∆G_bound>  (141) 
-12.520452

>  <regarded>  (141) 
mArh-x0900_0_A,mArh-5cms_N_13_N

>  <ref_pdb>  (141) 
nan

>  <smiles>  (141) 
O=C1CC(c2ncnc3c2ncn3C2OC(CO[P@@](=O)(O)O[P@@](=O)(O)OCC3OC(O)C(O)C3O)C(O)C2O)CN1

>  <submitter_email>  (141) 
nan

>  <disregarded>  (141) 


>  <LE>  (141) 
-0.419539

>  <submitter_institution>  (141) 
nan

>  <ref_mols>  (141) 
mArh-x0900_0_A,mArh-5cms_N_13_N

>  <N_constrained_atoms>  (141) 
41.0

>  <ref_url>  (141) 
nan

>  <method>  (141) 
nan

>  <comRMSD>  (141) 
0.958446

>  <N_unconstrained_atoms>  (141) 
0.0

>  <∆∆G>  (141) 
-17.201087

>  <runtime>  (141) 
72.803856

>  <generation_date>  (141) 
nan

$$$$
mArh-5cb3_0_A-mArh-x0685_1_A
     RDKit          3D

 47 51  0  0  0  0  0  0  0  0999 V2000
   -1.5490   18.1060   -6.0370 P   0  0  1  0  0  0  0  0  0  0  0  0
   -0.8830   16.6750   -5.8040 O   0  0  0  0  0  0  0  0  0  0  0  0
    0.4540   16.4240   -5.4000 C   0  0  0  0  0  0  0  0  0  0  0  0
   -2.7770   17.8400   -7.0110 O   0  0  0  0  0  0  0  0  0  0  0  0
   -1.8940   18.6480   -4.5900 O   0  0  0  0  0  0  0  0  0  0  0  0
   -0.3940   19.0610   -6.4830 O   0  0  0  0  0  0  0  0  0  0  0  0
   -0.2200   19.8120   -7.8440 P   0  0  1  0  0  0  0  0  0  0  0  0
    0.8290   20.8580   -7.8370 O   0  0  0  0  0  0  0  0  0  0  0  0
    0.0660   18.6420   -8.8910 O   0  0  0  0  0  0  0  0  0  0  0  0
   -1.6420   20.3480   -8.3320 O   0  0  0  0  0  0  0  0  0  0  0  0
    0.2550   15.7030   -4.1030 C   0  0  1  0  0  0  0  0  0  0  0  0
   -1.9980   21.6810   -8.0110 C   0  0  0  0  0  0  0  0  0  0  0  0
   -1.1400   15.7830   -3.8190 O   0  0  0  0  0  0  0  0  0  0  0  0
    0.5160   14.1880   -3.8360 C   0  0  2  0  0  0  0  0  0  0  0  0
    1.4160   13.3640   -4.4570 O   0  0  0  0  0  0  0  0  0  0  0  0
   -0.8000   13.4560   -3.5970 C   0  0  1  0  0  0  0  0  0  0  0  0
   -1.2110   14.7220   -2.9030 C   0  0  2  0  0  0  0  0  0  0  0  0
   -3.3460   22.0410   -8.6300 C   0  0  2  0  0  0  0  0  0  0  0  0
   -1.4750   13.0080   -4.8110 O   0  0  0  0  0  0  0  0  0  0  0  0
    1.7760   12.3750   -3.2280 S   0  0  0  0  0  0  0  0  0  0  0  0
   -3.8250   23.4640   -8.3630 C   0  0  1  0  0  0  0  0  0  0  0  0
   -4.3420   21.2000   -8.0540 O   0  0  0  0  0  0  0  0  0  0  0  0
   -2.1910   14.8810   -1.9100 N   0  0  0  0  0  0  0  0  0  0  0  0
   -4.7030   24.0330   -9.3210 O   0  0  0  0  0  0  0  0  0  0  0  0
   -1.5040   11.5080   -4.8670 N   0  0  0  0  0  0  0  0  0  0  0  0
    3.1990   12.2170   -3.2110 O   0  0  0  0  0  0  0  0  0  0  0  0
    0.8320   11.2770   -3.1830 O   0  0  0  0  0  0  0  0  0  0  0  0
    1.3630   13.2520   -1.9440 O   0  0  0  0  0  0  0  0  0  0  0  0
   -5.2440   21.9690   -7.2560 C   0  0  2  0  0  0  0  0  0  0  0  0
   -4.5180   23.2780   -7.0180 C   0  0  2  0  0  0  0  0  0  0  0  0
   -1.8840   14.8180   -0.6000 C   0  0  0  0  0  0  0  0  0  0  0  0
   -3.5360   15.1400   -2.0680 C   0  0  0  0  0  0  0  0  0  0  0  0
   -5.4850   21.3670   -5.9870 O   0  0  0  0  0  0  0  0  0  0  0  0
   -5.4550   24.2910   -6.6650 O   0  0  0  0  0  0  0  0  0  0  0  0
   -3.2110   15.0960    0.0370 C   0  0  0  0  0  0  0  0  0  0  0  0
   -0.6940   14.5830   -0.0220 N   0  0  0  0  0  0  0  0  0  0  0  0
   -4.1780   15.2750   -0.9190 N   0  0  0  0  0  0  0  0  0  0  0  0
   -0.9100   10.9590   -6.1340 C   0  0  0  0  0  0  0  0  0  0  0  0
   -3.1190   15.1120    1.5330 C   0  0  0  0  0  0  0  0  0  0  0  0
   -0.7880   14.6100    1.3160 C   0  0  0  0  0  0  0  0  0  0  0  0
   -0.7340    9.4170   -6.1080 C   0  0  0  0  0  0  0  0  0  0  0  0
   -1.7200   11.3630   -7.3750 C   0  0  0  0  0  0  0  0  0  0  0  0
   -4.2130   15.3860    2.3380 N   0  0  0  0  0  0  0  0  0  0  0  0
   -1.8980   14.8490    2.0490 N   0  0  0  0  0  0  0  0  0  0  0  0
   -0.0920    8.8930   -7.4030 C   0  0  0  0  0  0  0  0  0  0  0  0
   -1.0850   10.8350   -8.6670 C   0  0  0  0  0  0  0  0  0  0  0  0
   -0.8930    9.3170   -8.6300 C   0  0  0  0  0  0  0  0  0  0  0  0
  1  2  1  0
  2  3  1  0
  1  4  2  0
  1  5  1  1
  1  6  1  0
  6  7  1  0
  7  8  2  0
  7  9  1  6
  7 10  1  0
 11  3  1  6
 10 12  1  0
 11 13  1  0
 11 14  1  0
 14 15  1  6
 14 16  1  0
 13 17  1  0
 16 17  1  0
 18 12  1  1
 16 19  1  6
 20 15  1  0
 18 21  1  0
 18 22  1  0
 17 23  1  6
 21 24  1  6
 19 25  1  0
 20 26  2  0
 20 27  2  0
 20 28  1  0
 22 29  1  0
 21 30  1  0
 29 30  1  0
 23 31  1  0
 23 32  1  0
 29 33  1  1
 30 34  1  6
 31 35  2  0
 31 36  1  0
 32 37  2  0
 35 37  1  0
 25 38  1  0
 35 39  1  0
 36 40  2  0
 38 41  1  0
 38 42  1  0
 39 43  1  0
 39 44  2  0
 40 44  1  0
 41 45  1  0
 42 46  1  0
 45 47  1  0
 46 47  1  0
M  END
>  <%Rank>  (142) 
55.952381

>  <N_hits>  (142) 
2

>  <submitter_name>  (142) 
nan

>  <original SMILES>  (142) 
nan

>  <∆G_unbound>  (142) 
4.79241

>  <∆G_bound>  (142) 
-14.42503

>  <regarded>  (142) 
mArh-5cb3_0_A,mArh-x0685_1_A

>  <ref_pdb>  (142) 
nan

>  <smiles>  (142) 
Nc1ncnc2c1ncn2C1OC(CO[P@@](=O)(O)O[P@@](=O)(O)OCC2OC(O)C(O)C2O)C(OS(=O)(=O)O)C1ONC1CCCCC1

>  <submitter_email>  (142) 
nan

>  <disregarded>  (142) 


>  <LE>  (142) 
-0.408882

>  <submitter_institution>  (142) 
nan

>  <ref_mols>  (142) 
mArh-5cb3_0_A,mArh-x0685_1_A

>  <N_constrained_atoms>  (142) 
47.0

>  <ref_url>  (142) 
nan

>  <method>  (142) 
nan

>  <comRMSD>  (142) 
1.001489

>  <N_unconstrained_atoms>  (142) 
0.0

>  <∆∆G>  (142) 
-19.21744

>  <runtime>  (142) 
51.236814

>  <generation_date>  (142) 
nan

$$$$
mArh-x0421_0_A-mArh-x0438_0_A
     RDKit          3D

 16 17  0  0  0  0  0  0  0  0999 V2000
   -3.7470   15.1880   -2.8410 N   0  0  0  0  0  0  0  0  0  0  0  0
   -2.8680   14.9740   -1.8190 C   0  0  0  0  0  0  0  0  0  0  0  0
   -1.6680   14.8180   -2.0190 O   0  0  0  0  0  0  0  0  0  0  0  0
   -3.4910   14.9450   -0.4990 C   0  0  0  0  0  0  0  0  0  0  0  0
   -2.8650   15.1170    0.7240 C   0  0  0  0  0  0  0  0  0  0  0  0
   -4.8480   14.7240   -0.3080 N   0  0  0  0  0  0  0  0  0  0  0  0
   -3.8470   14.9910    1.6560 N   0  0  0  0  0  0  0  0  0  0  0  0
   -5.0110   14.7540    0.9950 C   0  0  0  0  0  0  0  0  0  0  0  0
   -6.3660   14.5280    1.7100 C   0  0  1  0  0  0  0  0  0  0  0  0
   -7.6680   14.1810    1.0060 C   0  0  1  0  0  0  0  0  0  0  0  0
   -6.7970   13.1030    1.5820 C   0  0  0  0  0  0  0  0  0  0  0  0
   -9.0540   14.0660    1.5630 C   0  0  0  0  0  0  0  0  0  0  0  0
   -9.5060   15.4410    2.6210 S   0  0  0  0  0  0  0  0  0  0  0  0
   -8.2510   15.5890    3.8790 C   0  0  0  0  0  0  0  0  0  0  0  0
  -10.7450   15.0820    3.2890 O   0  0  0  0  0  0  0  0  0  0  0  0
   -9.4790   16.6210    1.7900 O   0  0  0  0  0  0  0  0  0  0  0  0
  1  2  1  0
  2  3  2  0
  2  4  1  0
  4  5  2  0
  4  6  1  0
  5  7  1  0
  6  8  2  0
  7  8  1  0
  9  8  1  6
  9 10  1  0
  9 11  1  0
 10 11  1  0
 10 12  1  1
 13 12  1  0
 13 14  1  0
 13 15  2  0
 13 16  2  0
M  END
>  <%Rank>  (143) 
56.349206

>  <N_hits>  (143) 
2

>  <submitter_name>  (143) 
nan

>  <original SMILES>  (143) 
nan

>  <∆G_unbound>  (143) 
1.366485

>  <∆G_bound>  (143) 
-4.073927

>  <regarded>  (143) 
mArh-x0421_0_A,mArh-x0438_0_A

>  <ref_pdb>  (143) 
nan

>  <smiles>  (143) 
CS(=O)(=O)CC1CC1c1nc(C(N)=O)c[nH]1

>  <submitter_email>  (143) 
nan

>  <disregarded>  (143) 


>  <LE>  (143) 
-0.340026

>  <submitter_institution>  (143) 
nan

>  <ref_mols>  (143) 
mArh-x0421_0_A,mArh-x0438_0_A

>  <N_constrained_atoms>  (143) 
16.0

>  <ref_url>  (143) 
nan

>  <method>  (143) 
nan

>  <comRMSD>  (143) 
0.583057

>  <N_unconstrained_atoms>  (143) 
0.0

>  <∆∆G>  (143) 
-5.440412

>  <runtime>  (143) 
25.882518

>  <generation_date>  (143) 
nan

$$$$
mArh-x0685_0_A-mArh-5cb5_M_1_M
     RDKit          3D

 50 54  0  0  0  0  0  0  0  0999 V2000
   -7.0320   14.8990    2.3670 N   0  0  0  0  0  0  0  0  0  0  0  0
   -8.3100   14.2370    2.4270 C   0  0  0  0  0  0  0  0  0  0  0  0
   -8.1520   13.0130    3.3080 C   0  0  0  0  0  0  0  0  0  0  0  0
   -6.3570   14.7990    1.1320 C   0  0  0  0  0  0  0  0  0  0  0  0
   -5.0470   14.9490    1.3380 C   0  0  0  0  0  0  0  0  0  0  0  0
   -6.8850   14.5870   -0.1390 N   0  0  0  0  0  0  0  0  0  0  0  0
   -4.2500   14.8820    0.2890 C   0  0  0  0  0  0  0  0  0  0  0  0
   -6.0130   14.5230   -1.2420 C   0  0  0  0  0  0  0  0  0  0  0  0
   -4.6710   14.6680   -1.0060 C   0  0  0  0  0  0  0  0  0  0  0  0
   -3.3640   14.7140   -1.4510 C   0  0  0  0  0  0  0  0  0  0  0  0
   -3.1530   14.7590   -0.2450 N   0  0  0  0  0  0  0  0  0  0  0  0
   -2.1540   14.7440   -2.1880 N   0  0  0  0  0  0  0  0  0  0  0  0
   -1.7170   14.7120   -3.5740 C   0  0  1  0  0  0  0  0  0  0  0  0
   -1.9690   14.8350   -0.0150 C   0  0  0  0  0  0  0  0  0  0  0  0
   -1.2320   14.8550   -1.1310 C   0  0  0  0  0  0  0  0  0  0  0  0
   -0.9770   15.9230   -3.7520 O   0  0  0  0  0  0  0  0  0  0  0  0
   -0.5840   13.6860   -3.9600 C   0  0  1  0  0  0  0  0  0  0  0  0
   -1.5360   14.8930    1.2060 C   0  0  0  0  0  0  0  0  0  0  0  0
    0.0740   14.9660   -1.0920 N   0  0  0  0  0  0  0  0  0  0  0  0
   -2.9460   14.7800   -4.5350 C   0  0  0  0  0  0  0  0  0  0  0  0
   -1.0010   12.4100   -4.4650 O   0  0  0  0  0  0  0  0  0  0  0  0
   -2.5240   14.8220    2.1790 N   0  0  0  0  0  0  0  0  0  0  0  0
   -0.4450   15.7790   -5.0380 C   0  0  2  0  0  0  0  0  0  0  0  0
    0.1010   14.3520   -5.1490 C   0  0  1  0  0  0  0  0  0  0  0  0
   -0.2440   15.0100    1.3570 N   0  0  0  0  0  0  0  0  0  0  0  0
    0.4580   15.0550    0.1950 C   0  0  0  0  0  0  0  0  0  0  0  0
   -4.2460   14.6070   -3.8990 N   0  0  0  0  0  0  0  0  0  0  0  0
    0.4140   16.9520   -5.3870 C   0  0  0  0  0  0  0  0  0  0  0  0
    1.5050   14.1920   -5.0180 O   0  0  0  0  0  0  0  0  0  0  0  0
   -0.2790   17.5910   -6.4270 O   0  0  0  0  0  0  0  0  0  0  0  0
   -1.5450   18.5150   -6.1360 P   0  0  1  0  0  0  0  0  0  0  0  0
   -2.7340   18.0910   -6.8900 O   0  0  0  0  0  0  0  0  0  0  0  0
   -1.7070   18.6280   -4.5640 O   0  0  0  0  0  0  0  0  0  0  0  0
   -0.9090   19.8760   -6.5180 O   0  0  0  0  0  0  0  0  0  0  0  0
   -0.3030   19.9270   -7.9530 P   0  0  2  0  0  0  0  0  0  0  0  0
   -1.5550   20.3520   -8.7870 O   0  0  0  0  0  0  0  0  0  0  0  0
    0.2150   18.6600   -8.5380 O   0  0  0  0  0  0  0  0  0  0  0  0
    0.7190   21.1460   -7.9300 O   0  0  0  0  0  0  0  0  0  0  0  0
   -2.0840   21.6380   -8.7940 C   0  0  0  0  0  0  0  0  0  0  0  0
   -3.1270   21.9650   -7.8120 C   0  0  2  0  0  0  0  0  0  0  0  0
   -4.2370   21.0530   -7.8650 O   0  0  0  0  0  0  0  0  0  0  0  0
   -3.7530   23.3140   -8.0960 C   0  0  1  0  0  0  0  0  0  0  0  0
   -4.2240   23.5280   -9.4350 O   0  0  0  0  0  0  0  0  0  0  0  0
   -4.8600   23.2300   -7.0910 C   0  0  2  0  0  0  0  0  0  0  0  0
   -5.3040   21.7550   -7.2190 C   0  0  2  0  0  0  0  0  0  0  0  0
   -5.8480   24.2010   -7.3940 O   0  0  0  0  0  0  0  0  0  0  0  0
   -5.4660   21.2230   -5.9150 O   0  0  0  0  0  0  0  0  0  0  0  0
   -6.6260   23.8120   -8.4500 C   0  0  0  0  0  0  0  0  0  0  0  0
   -7.0740   24.9180   -9.3560 C   0  0  0  0  0  0  0  0  0  0  0  0
   -6.9400   22.6620   -8.6510 O   0  0  0  0  0  0  0  0  0  0  0  0
  1  2  1  0
  2  3  1  0
  1  4  1  0
  4  5  2  0
  4  6  1  0
  5  7  1  0
  6  8  2  0
  7  9  2  0
  8  9  1  0
  9 10  1  0
 10 11  2  0
 10 12  1  0
 12 13  1  0
 11 14  1  0
 12 15  1  0
 14 15  2  0
 13 16  1  0
 13 17  1  0
 14 18  1  0
 15 19  1  0
 13 20  1  6
 17 21  1  6
 18 22  1  0
 16 23  1  0
 17 24  1  0
 23 24  1  0
 18 25  2  0
 19 26  2  0
 25 26  1  0
 20 27  1  0
 23 28  1  1
 24 29  1  1
 28 30  1  0
 30 31  1  0
 31 32  2  0
 31 33  1  1
 31 34  1  0
 34 35  1  0
 35 36  1  0
 35 37  2  0
 35 38  1  1
 36 39  1  0
 40 39  1  6
 40 41  1  0
 40 42  1  0
 42 43  1  6
 42 44  1  0
 41 45  1  0
 44 45  1  0
 44 46  1  6
 45 47  1  1
 46 48  1  0
 48 49  1  0
 48 50  2  0
M  END
>  <%Rank>  (144) 
56.746032

>  <N_hits>  (144) 
2

>  <submitter_name>  (144) 
nan

>  <original SMILES>  (144) 
nan

>  <∆G_unbound>  (144) 
5.47577

>  <∆G_bound>  (144) 
-9.165744

>  <regarded>  (144) 
mArh-x0685_0_A,mArh-5cb5_M_1_M

>  <ref_pdb>  (144) 
nan

>  <smiles>  (144) 
CCNc1ccc(-c2nc3c(N)ncnc3n2C2(CN)OC(CO[P@@](=O)(O)O[P@](=O)(O)OCC3OC(O)C(OC(C)=O)C3O)C(O)C2O)cn1

>  <submitter_email>  (144) 
nan

>  <disregarded>  (144) 


>  <LE>  (144) 
-0.29283

>  <submitter_institution>  (144) 
nan

>  <ref_mols>  (144) 
mArh-x0685_0_A,mArh-5cb5_M_1_M

>  <N_constrained_atoms>  (144) 
49.0

>  <ref_url>  (144) 
nan

>  <method>  (144) 
nan

>  <comRMSD>  (144) 
0.947852

>  <N_unconstrained_atoms>  (144) 
1.0

>  <∆∆G>  (144) 
-14.641513

>  <runtime>  (144) 
79.843169

>  <generation_date>  (144) 
nan

$$$$
mArh-2fav_B_0_B-mArh-5cms_O_14_O
     RDKit          3D

 45 49  0  0  0  0  0  0  0  0999 V2000
   -1.2520   17.9480   -5.4910 P   0  0  0  0  0  0  0  0  0  0  0  0
   -0.2640   16.6010   -5.3470 O   0  0  0  0  0  0  0  0  0  0  0  0
    0.9500   16.8690   -4.8170 C   0  0  0  0  0  0  0  0  0  0  0  0
   -1.4820   18.9760   -4.2790 O   0  0  0  0  0  0  0  0  0  0  0  0
   -2.2370   17.9620   -6.7460 N   0  0  0  0  0  0  0  0  0  0  0  0
   -0.1330   18.8280   -6.0930 O   0  0  0  0  0  0  0  0  0  0  0  0
   -0.3400   19.5780   -7.6500 P   0  0  0  0  0  0  0  0  0  0  0  0
   -2.8920   17.1600   -7.1560 O   0  0  0  0  0  0  0  0  0  0  0  0
    1.0440   20.1820   -7.3650 O   0  0  0  0  0  0  0  0  0  0  0  0
    0.2540   18.6570   -8.8490 O   0  0  0  0  0  0  0  0  0  0  0  0
   -1.1660   20.9500   -7.8000 N   0  0  0  0  0  0  0  0  0  0  0  0
    1.3720   15.6150   -4.0490 C   0  0  1  0  0  0  0  0  0  0  0  0
   -1.8870   21.5950   -8.8260 C   0  0  1  0  0  0  0  0  0  0  0  0
   -2.3150   20.7190   -6.3470 P   0  0  0  0  0  0  0  0  0  0  0  0
    0.6010   15.3710   -2.9360 O   0  0  0  0  0  0  0  0  0  0  0  0
    1.1610   14.4400   -4.9480 C   0  0  1  0  0  0  0  0  0  0  0  0
    2.1080   13.4340   -4.7710 O   0  0  0  0  0  0  0  0  0  0  0  0
   -0.2370   13.9790   -4.6330 C   0  0  2  0  0  0  0  0  0  0  0  0
   -0.5910   14.7970   -3.4250 C   0  0  1  0  0  0  0  0  0  0  0  0
   -3.3470   22.0110   -8.5450 C   0  0  2  0  0  0  0  0  0  0  0  0
   -1.1280   22.3990   -9.8950 C   0  0  2  0  0  0  0  0  0  0  0  0
   -0.1970   12.6040   -4.3900 O   0  0  0  0  0  0  0  0  0  0  0  0
   -3.5850   23.4660   -8.0510 C   0  0  1  0  0  0  0  0  0  0  0  0
   -3.9110   21.2190   -7.5650 O   0  0  0  0  0  0  0  0  0  0  0  0
   -1.3710   14.2430   -2.4210 N   0  0  0  0  0  0  0  0  0  0  0  0
   -1.2880   23.8730  -10.0220 C   0  0  1  0  0  0  0  0  0  0  0  0
   -1.5450   22.0070  -11.1740 O   0  0  0  0  0  0  0  0  0  0  0  0
   -4.5420   24.0580   -8.8490 O   0  0  0  0  0  0  0  0  0  0  0  0
   -0.3180   24.4740  -10.8610 O   0  0  0  0  0  0  0  0  0  0  0  0
   -4.8560   21.8990   -6.8790 C   0  0  0  0  0  0  0  0  0  0  0  0
   -4.2400   23.2360   -6.6470 C   0  0  2  0  0  0  0  0  0  0  0  0
   -1.2600   14.7010   -1.0880 C   0  0  1  0  0  0  0  0  0  0  0  0
   -2.7500   14.1160   -2.6890 C   0  0  0  0  0  0  0  0  0  0  0  0
   -2.8250   22.5870  -11.2870 C   0  0  2  0  0  0  0  0  0  0  0  0
   -2.6250   23.9580  -10.7870 C   0  0  2  0  0  0  0  0  0  0  0  0
   -5.2430   24.1760   -6.5020 O   0  0  0  0  0  0  0  0  0  0  0  0
   -3.6840   21.8930  -10.5100 O   0  0  0  0  0  0  0  0  0  0  0  0
   -2.5190   24.9130  -11.7950 O   0  0  0  0  0  0  0  0  0  0  0  0
   -2.7050   14.9730   -0.6590 C   0  0  1  0  0  0  0  0  0  0  0  0
   -0.7320   13.6880   -0.2200 N   0  0  0  0  0  0  0  0  0  0  0  0
   -3.4050   13.9450   -1.3950 N   0  0  0  0  0  0  0  0  0  0  0  0
   -2.9700   15.0550    0.8020 C   0  0  1  0  0  0  0  0  0  0  0  0
   -0.8300   14.1060    1.1340 C   0  0  0  0  0  0  0  0  0  0  0  0
   -4.4000   14.9530    1.0980 N   0  0  0  0  0  0  0  0  0  0  0  0
   -2.1880   14.1620    1.5930 N   0  0  0  0  0  0  0  0  0  0  0  0
  1  2  1  0
  2  3  1  0
  1  4  1  0
  1  5  1  0
  1  6  1  0
  6  7  1  0
  5  8  2  0
  7  9  1  0
  7 10  1  0
  7 11  1  0
 12  3  1  6
 13 11  1  1
 11 14  1  0
 12 15  1  0
 12 16  1  0
 16 17  1  1
 16 18  1  0
 15 19  1  0
 18 19  1  0
 13 20  1  0
 13 21  1  0
 18 22  1  1
 20 23  1  0
 20 24  1  1
 19 25  1  1
 21 26  1  0
 21 27  1  6
 23 28  1  6
 26 29  1  6
 24 30  1  0
 23 31  1  0
 30 31  1  0
 25 32  1  0
 25 33  1  0
 27 34  1  0
 26 35  1  0
 34 35  1  0
 31 36  1  6
 34 37  1  1
 35 38  1  6
 32 39  1  0
 32 40  1  1
 33 41  1  0
 39 41  1  1
 39 42  1  0
 40 43  1  0
 42 44  1  6
 42 45  1  0
 43 45  1  0
M  CHG  2   4  -1   9  -1
M  END
>  <%Rank>  (145) 
57.142857

>  <N_hits>  (145) 
2

>  <submitter_name>  (145) 
nan

>  <original SMILES>  (145) 
nan

>  <∆G_unbound>  (145) 
7.012011

>  <∆G_bound>  (145) 
1.196662

>  <regarded>  (145) 
mArh-2fav_B_0_B,mArh-5cms_O_14_O

>  <ref_pdb>  (145) 
nan

>  <smiles>  (145) 
NC1NCNC2C1NCN2C1OC(CO[PH]([O-])(N=O)O[PH]([O-])(O)N([P@@H2])C(C2OCC(O)C2O)C2OC(O)C(O)C2O)C(O)C1O

>  <submitter_email>  (145) 
nan

>  <disregarded>  (145) 


>  <LE>  (145) 
-0.12923

>  <submitter_institution>  (145) 
nan

>  <ref_mols>  (145) 
mArh-2fav_B_0_B,mArh-5cms_O_14_O

>  <N_constrained_atoms>  (145) 
45.0

>  <ref_url>  (145) 
nan

>  <method>  (145) 
nan

>  <comRMSD>  (145) 
0.865973

>  <N_unconstrained_atoms>  (145) 
0.0

>  <∆∆G>  (145) 
-5.815349

>  <runtime>  (145) 
49.437186

>  <generation_date>  (145) 
nan

$$$$
mArh-5cms_I_8_I-mArh-5cms_L_11_L
     RDKit          3D

 37 40  0  0  0  0  0  0  0  0999 V2000
   -1.7980   17.9980   -6.1280 P   0  0  1  0  0  0  0  0  0  0  0  0
   -0.4580   17.1430   -5.9680 O   0  0  0  0  0  0  0  0  0  0  0  0
   -0.2660   16.6670   -4.6420 C   0  0  0  0  0  0  0  0  0  0  0  0
   -2.9030   17.2480   -6.7620 O   0  0  0  0  0  0  0  0  0  0  0  0
   -1.9820   18.5050   -4.6450 O   0  0  0  0  0  0  0  0  0  0  0  0
   -1.4530   19.3210   -6.8810 O   0  0  0  0  0  0  0  0  0  0  0  0
   -0.1290   19.5190   -7.6980 P   0  0  1  0  0  0  0  0  0  0  0  0
    1.1270   19.4770   -6.9130 O   0  0  0  0  0  0  0  0  0  0  0  0
   -0.1580   18.3880   -8.8060 O   0  0  0  0  0  0  0  0  0  0  0  0
   -0.4170   20.8530   -8.5020 O   0  0  0  0  0  0  0  0  0  0  0  0
    0.5380   15.3540   -4.5590 C   0  0  1  0  0  0  0  0  0  0  0  0
   -1.5150   21.6520   -8.0500 C   0  0  0  0  0  0  0  0  0  0  0  0
    0.5830   14.8470   -3.1560 N   0  0  0  0  0  0  0  0  0  0  0  0
   -0.0400   14.1660   -5.3380 C   0  0  1  0  0  0  0  0  0  0  0  0
    0.9600   13.2810   -5.8620 O   0  0  0  0  0  0  0  0  0  0  0  0
    1.5900   13.7890   -3.3350 O   0  0  0  0  0  0  0  0  0  0  0  0
   -0.9030   13.3850   -4.3570 C   0  0  1  0  0  0  0  0  0  0  0  0
   -0.5750   13.9120   -2.9620 C   0  0  2  0  0  0  0  0  0  0  0  0
   -2.5550   21.9270   -9.1300 C   0  0  2  0  0  0  0  0  0  0  0  0
   -2.2720   13.3690   -4.7210 O   0  0  0  0  0  0  0  0  0  0  0  0
   -2.8100   23.3810   -9.3020 C   0  0  1  0  0  0  0  0  0  0  0  0
   -3.9320   21.5580   -8.8250 O   0  0  0  0  0  0  0  0  0  0  0  0
   -1.6300   14.3780   -2.0560 N   0  0  0  0  0  0  0  0  0  0  0  0
   -1.6570   24.1470   -9.4520 O   0  0  0  0  0  0  0  0  0  0  0  0
   -4.7820   22.5230   -9.5270 C   0  0  2  0  0  0  0  0  0  0  0  0
   -3.8480   23.2960  -10.4200 C   0  0  2  0  0  0  0  0  0  0  0  0
   -1.4460   14.5420   -0.7060 C   0  0  0  0  0  0  0  0  0  0  0  0
   -2.9450   14.7080   -2.3120 C   0  0  0  0  0  0  0  0  0  0  0  0
   -5.3270   23.4460   -8.6090 O   0  0  0  0  0  0  0  0  0  0  0  0
   -3.6290   22.4480  -11.5480 O   0  0  0  0  0  0  0  0  0  0  0  0
   -2.6780   14.9500   -0.2050 C   0  0  0  0  0  0  0  0  0  0  0  0
   -0.3080   14.3390   -0.0260 N   0  0  0  0  0  0  0  0  0  0  0  0
   -3.6030   15.0560   -1.2190 N   0  0  0  0  0  0  0  0  0  0  0  0
   -2.7540   15.1680    1.1760 C   0  0  0  0  0  0  0  0  0  0  0  0
   -0.5030   14.5800    1.2800 C   0  0  0  0  0  0  0  0  0  0  0  0
   -3.9150   15.5710    1.8300 N   0  0  0  0  0  0  0  0  0  0  0  0
   -1.6340   14.9690    1.8990 N   0  0  0  0  0  0  0  0  0  0  0  0
  1  2  1  0
  2  3  1  0
  1  4  2  0
  1  5  1  1
  1  6  1  0
  6  7  1  0
  7  8  2  0
  7  9  1  6
  7 10  1  0
 11  3  1  1
 10 12  1  0
 11 13  1  0
 11 14  1  0
 14 15  1  1
 13 16  1  0
 14 17  1  0
 13 18  1  0
 17 18  1  0
 19 12  1  1
 17 20  1  6
 19 21  1  0
 19 22  1  0
 18 23  1  6
 21 24  1  6
 22 25  1  0
 21 26  1  0
 25 26  1  0
 23 27  1  0
 23 28  1  0
 25 29  1  1
 26 30  1  6
 27 31  2  0
 27 32  1  0
 28 33  2  0
 31 33  1  0
 31 34  1  0
 32 35  2  0
 34 36  1  0
 34 37  2  0
 35 37  1  0
M  END
>  <%Rank>  (146) 
57.539683

>  <N_hits>  (146) 
2

>  <submitter_name>  (146) 
nan

>  <original SMILES>  (146) 
nan

>  <∆G_unbound>  (146) 
5.712233

>  <∆G_bound>  (146) 
-11.470597

>  <regarded>  (146) 
mArh-5cms_I_8_I,mArh-5cms_L_11_L

>  <ref_pdb>  (146) 
nan

>  <smiles>  (146) 
Nc1ncnc2c1ncn2C1C(O)C(O)C(CO[P@@](=O)(O)O[P@@](=O)(O)OCC2OC(O)C(O)C2O)N1O

>  <submitter_email>  (146) 
nan

>  <disregarded>  (146) 


>  <LE>  (146) 
-0.464401

>  <submitter_institution>  (146) 
nan

>  <ref_mols>  (146) 
mArh-5cms_I_8_I,mArh-5cms_L_11_L

>  <N_constrained_atoms>  (146) 
37.0

>  <ref_url>  (146) 
nan

>  <method>  (146) 
nan

>  <comRMSD>  (146) 
0.976113

>  <N_unconstrained_atoms>  (146) 
0.0

>  <∆∆G>  (146) 
-17.18283

>  <runtime>  (146) 
52.923093

>  <generation_date>  (146) 
nan

$$$$
mArh-x0969_0_A-mArh-5cb5_A_0_A
     RDKit          3D

 41 45  0  0  0  0  0  0  0  0999 V2000
   -6.5450   14.1610    1.9560 N   0  0  0  0  0  0  0  0  0  0  0  0
   -6.1430   14.5480    0.5980 C   0  0  0  0  0  0  0  0  0  0  0  0
   -7.0330   15.1640   -0.2370 N   0  0  0  0  0  0  0  0  0  0  0  0
   -4.9710   14.4350   -0.1440 C   0  0  0  0  0  0  0  0  0  0  0  0
   -6.5180   15.4720   -1.4430 N   0  0  0  0  0  0  0  0  0  0  0  0
   -5.2570   15.0320   -1.3730 C   0  0  0  0  0  0  0  0  0  0  0  0
   -3.6110   13.8810    0.0370 C   0  0  0  0  0  0  0  0  0  0  0  0
   -4.2370   15.1430   -2.4740 C   0  0  0  0  0  0  0  0  0  0  0  0
   -2.6160   14.5820   -0.6810 C   0  0  1  0  0  0  0  0  0  0  0  0
   -2.7020   14.8980   -2.1030 C   0  0  2  0  0  0  0  0  0  0  0  0
   -2.4710   15.7650    0.3160 C   0  0  1  0  0  0  0  0  0  0  0  0
   -1.3110   13.7960   -0.4680 C   0  0  0  0  0  0  0  0  0  0  0  0
   -3.6700   16.1670    1.0430 N   0  0  0  0  0  0  0  0  0  0  0  0
   -1.8870   16.1200   -2.4720 O   0  0  0  0  0  0  0  0  0  0  0  0
   -2.1330   14.0940   -3.1910 C   0  0  2  0  0  0  0  0  0  0  0  0
   -1.5640   15.3950    1.3710 N   0  0  0  0  0  0  0  0  0  0  0  0
   -0.1730   14.6830   -0.3430 N   0  0  0  0  0  0  0  0  0  0  0  0
   -1.8710   12.7250   -2.9540 O   0  0  0  0  0  0  0  0  0  0  0  0
   -0.6950   15.8240   -3.3220 C   0  0  1  0  0  0  0  0  0  0  0  0
   -0.9710   14.6720   -4.0290 C   0  0  1  0  0  0  0  0  0  0  0  0
   -0.2000   15.2100    0.9720 C   0  0  0  0  0  0  0  0  0  0  0  0
   -0.3580   16.9900   -4.2670 C   0  0  0  0  0  0  0  0  0  0  0  0
    0.1740   13.7910   -4.0980 O   0  0  0  0  0  0  0  0  0  0  0  0
   -1.2370   16.9490   -5.3770 O   0  0  0  0  0  0  0  0  0  0  0  0
   -1.6270   18.3230   -6.0630 P   0  0  1  0  0  0  0  0  0  0  0  0
   -2.6150   18.1960   -7.1070 O   0  0  0  0  0  0  0  0  0  0  0  0
   -2.2070   19.2150   -4.8980 O   0  0  0  0  0  0  0  0  0  0  0  0
   -0.3110   19.0690   -6.4550 O   0  0  0  0  0  0  0  0  0  0  0  0
   -0.1520   19.8100   -7.8310 P   0  0  1  0  0  0  0  0  0  0  0  0
    0.8970   20.8590   -7.8430 O   0  0  0  0  0  0  0  0  0  0  0  0
    0.1790   18.5870   -8.8160 O   0  0  0  0  0  0  0  0  0  0  0  0
   -1.5790   20.2650   -8.3690 O   0  0  0  0  0  0  0  0  0  0  0  0
   -2.0130   21.5960   -8.1290 C   0  0  0  0  0  0  0  0  0  0  0  0
   -3.3920   21.8090   -8.7520 C   0  0  2  0  0  0  0  0  0  0  0  0
   -3.8680   23.2580   -8.7770 C   0  0  1  0  0  0  0  0  0  0  0  0
   -4.3470   21.0270   -8.0040 O   0  0  0  0  0  0  0  0  0  0  0  0
   -4.4180   23.6400  -10.0320 O   0  0  0  0  0  0  0  0  0  0  0  0
   -5.4370   21.8530   -7.6010 C   0  0  2  0  0  0  0  0  0  0  0  0
   -4.9730   23.3060   -7.7380 C   0  0  2  0  0  0  0  0  0  0  0  0
   -5.8340   21.5490   -6.2710 O   0  0  0  0  0  0  0  0  0  0  0  0
   -6.0260   24.1640   -8.1590 O   0  0  0  0  0  0  0  0  0  0  0  0
  1  2  1  0
  2  3  1  0
  2  4  2  0
  3  5  1  0
  4  6  1  0
  5  6  2  0
  4  7  1  0
  6  8  1  0
  9  7  1  1
 10  8  1  6
  9 10  1  0
  9 11  1  0
  9 12  1  0
 11 13  1  1
 10 14  1  0
 10 15  1  0
 11 16  1  0
 12 17  1  0
 15 18  1  1
 14 19  1  0
 15 20  1  0
 19 20  1  0
 16 21  1  0
 17 21  1  0
 19 22  1  6
 20 23  1  1
 22 24  1  0
 24 25  1  0
 25 26  2  0
 25 27  1  1
 25 28  1  0
 28 29  1  0
 29 30  2  0
 29 31  1  6
 29 32  1  0
 32 33  1  0
 34 33  1  1
 34 35  1  0
 34 36  1  0
 35 37  1  6
 36 38  1  0
 35 39  1  0
 38 39  1  0
 38 40  1  1
 39 41  1  6
M  END
>  <%Rank>  (147) 
57.936508

>  <N_hits>  (147) 
2

>  <submitter_name>  (147) 
nan

>  <original SMILES>  (147) 
nan

>  <∆G_unbound>  (147) 
5.039586

>  <∆G_bound>  (147) 
-11.722961

>  <regarded>  (147) 
mArh-x0969_0_A,mArh-5cb5_A_0_A

>  <ref_pdb>  (147) 
nan

>  <smiles>  (147) 
Nc1[nH]nc2c1CC1(CNCNC1N)C1(C2)OC(CO[P@@](=O)(O)O[P@@](=O)(O)OCC2OC(O)C(O)C2O)C(O)C1O

>  <submitter_email>  (147) 
nan

>  <disregarded>  (147) 


>  <LE>  (147) 
-0.408843

>  <submitter_institution>  (147) 
nan

>  <ref_mols>  (147) 
mArh-x0969_0_A,mArh-5cb5_A_0_A

>  <N_constrained_atoms>  (147) 
41.0

>  <ref_url>  (147) 
nan

>  <method>  (147) 
nan

>  <comRMSD>  (147) 
0.986033

>  <N_unconstrained_atoms>  (147) 
0.0

>  <∆∆G>  (147) 
-16.762547

>  <runtime>  (147) 
45.27366

>  <generation_date>  (147) 
nan

$$$$
mArh-5cms_K_10_K-mArh-5cms_B_1_B
     RDKit          3D

 36 39  0  0  0  0  0  0  0  0999 V2000
   -1.4480   18.1180   -6.2020 P   0  0  1  0  0  0  0  0  0  0  0  0
    0.0160   17.4540   -6.3330 O   0  0  0  0  0  0  0  0  0  0  0  0
    0.7100   16.7010   -5.3380 C   0  0  0  0  0  0  0  0  0  0  0  0
   -2.5690   17.3690   -6.8230 O   0  0  0  0  0  0  0  0  0  0  0  0
   -1.6840   18.4410   -4.6640 O   0  0  0  0  0  0  0  0  0  0  0  0
   -1.2610   19.5650   -6.7620 O   0  0  0  0  0  0  0  0  0  0  0  0
   -0.3220   19.8720   -7.9950 P   0  0  1  0  0  0  0  0  0  0  0  0
    0.8410   20.7570   -7.7360 O   0  0  0  0  0  0  0  0  0  0  0  0
    0.0320   18.4840   -8.7120 O   0  0  0  0  0  0  0  0  0  0  0  0
   -1.3780   20.4390   -9.0440 O   0  0  0  0  0  0  0  0  0  0  0  0
   -0.1310   15.5490   -4.8230 C   0  0  2  0  0  0  0  0  0  0  0  0
   -2.0310   21.6090   -8.6320 C   0  0  0  0  0  0  0  0  0  0  0  0
   -0.1610   15.5070   -3.4110 O   0  0  0  0  0  0  0  0  0  0  0  0
    0.0520   14.0590   -5.1860 C   0  0  1  0  0  0  0  0  0  0  0  0
    1.3340   13.5390   -4.8030 O   0  0  0  0  0  0  0  0  0  0  0  0
   -1.0210   13.4440   -4.2480 C   0  0  2  0  0  0  0  0  0  0  0  0
   -1.3190   14.7000   -3.4040 C   0  0  1  0  0  0  0  0  0  0  0  0
   -3.2780   21.9770   -9.4430 C   0  0  1  0  0  0  0  0  0  0  0  0
   -0.5540   12.3120   -3.5420 O   0  0  0  0  0  0  0  0  0  0  0  0
   -3.4830   23.4680   -9.3340 C   0  0  1  0  0  0  0  0  0  0  0  0
   -3.2760   21.7070  -10.8510 O   0  0  0  0  0  0  0  0  0  0  0  0
   -2.0910   14.8210   -2.1980 N   0  0  0  0  0  0  0  0  0  0  0  0
   -2.2690   24.1060   -9.0760 O   0  0  0  0  0  0  0  0  0  0  0  0
   -4.2060   22.6160  -11.4690 C   0  0  2  0  0  0  0  0  0  0  0  0
   -4.2330   23.8750  -10.6190 C   0  0  2  0  0  0  0  0  0  0  0  0
   -1.7720   14.7570   -0.8600 C   0  0  0  0  0  0  0  0  0  0  0  0
   -3.4300   15.0860   -2.2940 C   0  0  0  0  0  0  0  0  0  0  0  0
   -5.5210   22.1180  -11.5140 O   0  0  0  0  0  0  0  0  0  0  0  0
   -3.6190   24.9790  -11.3180 O   0  0  0  0  0  0  0  0  0  0  0  0
   -2.9880   15.0220   -0.2360 C   0  0  0  0  0  0  0  0  0  0  0  0
   -0.5960   14.5240   -0.2440 N   0  0  0  0  0  0  0  0  0  0  0  0
   -4.0050   15.2140   -1.1360 N   0  0  0  0  0  0  0  0  0  0  0  0
   -3.0010   15.0620    1.1480 C   0  0  0  0  0  0  0  0  0  0  0  0
   -0.7340   14.5720    1.0990 C   0  0  0  0  0  0  0  0  0  0  0  0
   -4.1690   15.3570    1.8300 N   0  0  0  0  0  0  0  0  0  0  0  0
   -1.8530   14.8190    1.8230 N   0  0  0  0  0  0  0  0  0  0  0  0
  1  2  1  0
  2  3  1  0
  1  4  2  0
  1  5  1  1
  1  6  1  0
  6  7  1  0
  7  8  2  0
  7  9  1  6
  7 10  1  0
 11  3  1  1
 10 12  1  0
 11 13  1  0
 11 14  1  0
 14 15  1  1
 14 16  1  0
 13 17  1  0
 16 17  1  0
 18 12  1  6
 16 19  1  1
 18 20  1  0
 18 21  1  0
 17 22  1  1
 20 23  1  6
 21 24  1  0
 20 25  1  0
 24 25  1  0
 22 26  1  0
 22 27  1  0
 24 28  1  1
 25 29  1  6
 26 30  2  0
 26 31  1  0
 27 32  2  0
 30 32  1  0
 30 33  1  0
 31 34  2  0
 33 35  1  0
 33 36  2  0
 34 36  1  0
M  END
>  <%Rank>  (148) 
58.333333

>  <N_hits>  (148) 
2

>  <submitter_name>  (148) 
nan

>  <original SMILES>  (148) 
nan

>  <∆G_unbound>  (148) 
4.299768

>  <∆G_bound>  (148) 
-11.605619

>  <regarded>  (148) 
mArh-5cms_K_10_K,mArh-5cms_B_1_B

>  <ref_pdb>  (148) 
nan

>  <smiles>  (148) 
Nc1ncnc2c1ncn2C1OC(CO[P@@](=O)(O)O[P@@](=O)(O)OCC2OC(O)C(O)C2O)C(O)C1O

>  <submitter_email>  (148) 
nan

>  <disregarded>  (148) 


>  <LE>  (148) 
-0.441816

>  <submitter_institution>  (148) 
nan

>  <ref_mols>  (148) 
mArh-5cms_K_10_K,mArh-5cms_B_1_B

>  <N_constrained_atoms>  (148) 
36.0

>  <ref_url>  (148) 
nan

>  <method>  (148) 
nan

>  <comRMSD>  (148) 
0.969455

>  <N_unconstrained_atoms>  (148) 
0.0

>  <∆∆G>  (148) 
-15.905387

>  <runtime>  (148) 
56.137806

>  <generation_date>  (148) 
nan

$$$$
mArh-5cb5_R_0_R-mArh-3ew5_C_0_C
     RDKit          3D

 38 42  0  0  0  0  0  0  0  0999 V2000
   -1.4470   18.0580   -6.0640 P   0  0  1  0  0  0  0  0  0  0  0  0
   -0.4890   16.8060   -5.8290 O   0  0  0  0  0  0  0  0  0  0  0  0
    0.6620   16.8870   -5.0020 C   0  0  0  0  0  0  0  0  0  0  0  0
   -2.6180   17.7930   -6.9380 O   0  0  0  0  0  0  0  0  0  0  0  0
   -1.8970   18.4120   -4.5920 O   0  0  0  0  0  0  0  0  0  0  0  0
   -0.5560   19.2920   -6.4100 O   0  0  0  0  0  0  0  0  0  0  0  0
   -0.0390   19.8600   -7.7690 P   0  0  1  0  0  0  0  0  0  0  0  0
    1.1450   20.7630   -7.6550 O   0  0  0  0  0  0  0  0  0  0  0  0
    0.1560   18.6090   -8.7550 O   0  0  0  0  0  0  0  0  0  0  0  0
   -1.2850   20.6080   -8.3770 O   0  0  0  0  0  0  0  0  0  0  0  0
    0.9630   15.5530   -4.3020 C   0  0  1  0  0  0  0  0  0  0  0  0
   -1.9340   21.3920   -7.4150 C   0  0  1  0  0  0  0  0  0  0  0  0
    0.2900   15.5180   -3.0220 O   0  0  0  0  0  0  0  0  0  0  0  0
    0.4180   14.2850   -5.0170 C   0  0  1  0  0  0  0  0  0  0  0  0
    1.3100   13.1800   -4.8900 O   0  0  0  0  0  0  0  0  0  0  0  0
   -2.4930   22.5790   -8.0720 C   0  0  0  0  0  0  0  0  0  0  0  0
   -0.7880   14.0470   -4.3160 C   0  0  2  0  0  0  0  0  0  0  0  0
   -1.0180   15.0210   -3.3600 C   0  0  1  0  0  0  0  0  0  0  0  0
   -3.0620   20.6560   -6.7290 C   0  0  0  0  0  0  0  0  0  0  0  0
   -0.7010   12.7330   -3.7630 O   0  0  0  0  0  0  0  0  0  0  0  0
   -3.7670   22.1860   -8.7550 C   0  0  2  0  0  0  0  0  0  0  0  0
   -4.2870   21.3880   -6.5460 O   0  0  0  0  0  0  0  0  0  0  0  0
   -1.9200   14.9590   -2.2250 N   0  0  0  0  0  0  0  0  0  0  0  0
   -4.1420   23.2140   -9.8240 C   0  0  0  0  0  0  0  0  0  0  0  0
   -4.8020   22.0750   -7.6830 C   0  0  1  0  0  0  0  0  0  0  0  0
   -1.5700   14.8790   -0.8900 C   0  0  0  0  0  0  0  0  0  0  0  0
   -3.2860   15.0160   -2.2850 C   0  0  0  0  0  0  0  0  0  0  0  0
   -5.3300   23.9850   -9.7050 O   0  0  0  0  0  0  0  0  0  0  0  0
   -5.0650   23.5340   -7.4030 C   0  0  2  0  0  0  0  0  0  0  0  0
   -2.7900   14.9370   -0.2160 C   0  0  0  0  0  0  0  0  0  0  0  0
   -0.3460   14.7940   -0.3390 N   0  0  0  0  0  0  0  0  0  0  0  0
   -3.8400   15.0060   -1.0950 N   0  0  0  0  0  0  0  0  0  0  0  0
   -5.5870   23.8960   -6.1440 O   0  0  0  0  0  0  0  0  0  0  0  0
   -6.0230   23.8400   -8.5000 C   0  0  0  0  0  0  0  0  0  0  0  0
   -2.7460   14.9330    1.1770 C   0  0  0  0  0  0  0  0  0  0  0  0
   -0.4410   14.7740    1.0130 C   0  0  0  0  0  0  0  0  0  0  0  0
   -3.8990   15.0420    1.9300 N   0  0  0  0  0  0  0  0  0  0  0  0
   -1.5440   14.8350    1.7870 N   0  0  0  0  0  0  0  0  0  0  0  0
  1  2  1  0
  2  3  1  0
  1  4  2  0
  1  5  1  1
  1  6  1  0
  6  7  1  0
  7  8  2  0
  7  9  1  6
  7 10  1  0
 11  3  1  6
 12 10  1  6
 11 13  1  0
 11 14  1  0
 14 15  1  1
 12 16  1  0
 14 17  1  0
 13 18  1  0
 17 18  1  0
 12 19  1  0
 17 20  1  1
 21 16  1  1
 19 22  1  0
 18 23  1  1
 21 24  1  0
 21 25  1  0
 25 22  1  1
 23 26  1  0
 23 27  1  0
 24 28  1  0
 25 29  1  0
 26 30  2  0
 26 31  1  0
 27 32  2  0
 30 32  1  0
 29 33  1  1
 28 34  1  0
 29 34  1  0
 30 35  1  0
 31 36  2  0
 35 37  1  0
 35 38  2  0
 36 38  1  0
M  END
>  <%Rank>  (149) 
58.730159

>  <N_hits>  (149) 
2

>  <submitter_name>  (149) 
nan

>  <original SMILES>  (149) 
nan

>  <∆G_unbound>  (149) 
2.748215

>  <∆G_bound>  (149) 
-18.313757

>  <regarded>  (149) 
mArh-5cb5_R_0_R,mArh-3ew5_C_0_C

>  <ref_pdb>  (149) 
nan

>  <smiles>  (149) 
Nc1ncnc2c1ncn2C1OC(CO[P@@](=O)(O)O[P@@](=O)(O)OC2COC3C(O)COC[C@H]3C2)C(O)C1O

>  <submitter_email>  (149) 
nan

>  <disregarded>  (149) 


>  <LE>  (149) 
-0.554262

>  <submitter_institution>  (149) 
nan

>  <ref_mols>  (149) 
mArh-5cb5_R_0_R,mArh-3ew5_C_0_C

>  <N_constrained_atoms>  (149) 
38.0

>  <ref_url>  (149) 
nan

>  <method>  (149) 
nan

>  <comRMSD>  (149) 
1.046353

>  <N_unconstrained_atoms>  (149) 
0.0

>  <∆∆G>  (149) 
-21.061972

>  <runtime>  (149) 
50.709868

>  <generation_date>  (149) 
nan

$$$$
mArh-3q6z_0_A-mArh-5lw0_A_0_A
     RDKit          3D

 45 49  0  0  0  0  0  0  0  0999 V2000
   -1.4250   18.0860   -5.8380 P   0  0  2  0  0  0  0  0  0  0  0  0
   -0.2710   16.8890   -5.9360 O   0  0  0  0  0  0  0  0  0  0  0  0
    0.6270   16.8560   -4.8860 C   0  0  0  0  0  0  0  0  0  0  0  0
   -2.1210   17.8700   -4.5570 O   0  0  0  0  0  0  0  0  0  0  0  0
   -2.6170   17.9020   -6.9990 O   0  0  0  0  0  0  0  0  0  0  0  0
   -0.7680   19.6290   -5.9370 O   0  0  0  0  0  0  0  0  0  0  0  0
   -0.2750   20.0620   -7.5010 P   0  0  0  0  0  0  0  0  0  0  0  0
    0.4120   18.5940   -8.0690 N   0  0  0  0  0  0  0  0  0  0  0  0
    1.0450   21.1500   -7.5330 O   0  0  0  0  0  0  0  0  0  0  0  0
   -1.5910   20.4760   -8.5020 N   0  0  0  0  0  0  0  0  0  0  0  0
    0.5140   15.6210   -4.0180 C   0  0  1  0  0  0  0  0  0  0  0  0
   -2.1220   21.7640   -8.4830 C   0  0  0  0  0  0  0  0  0  0  0  0
    0.1280   18.1950   -9.1390 O   0  0  0  0  0  0  0  0  0  0  0  0
   -1.4280   20.0080   -9.7010 O   0  0  0  0  0  0  0  0  0  0  0  0
   -0.7090   15.6070   -3.3390 O   0  0  0  0  0  0  0  0  0  0  0  0
    0.6030   14.3280   -4.8140 C   0  0  1  0  0  0  0  0  0  0  0  0
    1.4820   13.4480   -4.1580 O   0  0  0  0  0  0  0  0  0  0  0  0
   -0.7920   13.8210   -4.7800 C   0  0  2  0  0  0  0  0  0  0  0  0
   -1.2760   14.3030   -3.4530 C   0  0  2  0  0  0  0  0  0  0  0  0
   -3.1340   21.9660   -7.4790 C   0  0  1  0  0  0  0  0  0  0  0  0
   -0.9480   12.4840   -4.9750 O   0  0  0  0  0  0  0  0  0  0  0  0
   -3.7630   23.3280   -7.6240 C   0  0  1  0  0  0  0  0  0  0  0  0
   -4.2000   21.0650   -7.3200 N   0  0  0  0  0  0  0  0  0  0  0  0
   -2.7220   14.4610   -3.3950 N   0  0  0  0  0  0  0  0  0  0  0  0
   -4.4940   23.5690   -8.7840 O   0  0  0  0  0  0  0  0  0  0  0  0
   -5.0960   21.0600   -8.3650 O   0  0  0  0  0  0  0  0  0  0  0  0
   -4.9940   21.7260   -6.3350 C   0  0  1  0  0  0  0  0  0  0  0  0
   -4.6520   23.2340   -6.4350 C   0  0  2  0  0  0  0  0  0  0  0  0
   -3.3220   14.5970   -2.2370 C   0  0  0  0  0  0  0  0  0  0  0  0
   -3.7620   14.4190   -4.2330 C   0  0  0  0  0  0  0  0  0  0  0  0
   -6.2960   21.4900   -6.6130 O   0  0  0  0  0  0  0  0  0  0  0  0
   -5.7520   24.0360   -6.5810 O   0  0  0  0  0  0  0  0  0  0  0  0
   -4.5700   14.7430   -2.2460 C   0  0  0  0  0  0  0  0  0  0  0  0
   -2.9060   14.5980   -1.1170 N   0  0  0  0  0  0  0  0  0  0  0  0
   -4.9410   14.5920   -3.5380 N   0  0  0  0  0  0  0  0  0  0  0  0
   -5.1410   14.9750   -1.1040 C   0  0  0  0  0  0  0  0  0  0  0  0
   -1.7510   14.4580   -0.5650 C   0  0  0  0  0  0  0  0  0  0  0  0
   -6.5420   15.1560   -0.9430 N   0  0  0  0  0  0  0  0  0  0  0  0
   -4.3040   15.0560    0.1030 N   0  0  0  0  0  0  0  0  0  0  0  0
   -2.8350   14.8090    0.3680 C   0  0  0  0  0  0  0  0  0  0  0  0
   -0.7250   14.3830    0.3190 N   0  0  0  0  0  0  0  0  0  0  0  0
   -2.8130   15.0000    1.6810 C   0  0  0  0  0  0  0  0  0  0  0  0
   -0.6260   14.5270    1.6010 C   0  0  0  0  0  0  0  0  0  0  0  0
   -4.0070   15.3750    2.3340 N   0  0  0  0  0  0  0  0  0  0  0  0
   -1.6840   14.8350    2.2800 N   0  0  0  0  0  0  0  0  0  0  0  0
  1  2  1  0
  2  3  1  0
  1  4  2  0
  1  5  1  6
  1  6  1  0
  6  7  1  0
  7  8  1  0
  7  9  1  0
  7 10  1  0
 11  3  1  6
 10 12  1  0
  8 13  2  0
 10 14  1  0
 11 15  1  0
 11 16  1  0
 16 17  1  1
 16 18  1  0
 15 19  1  0
 18 19  1  0
 20 12  1  6
 18 21  1  1
 20 22  1  0
 20 23  1  0
 19 24  1  6
 22 25  1  6
 23 26  1  0
 23 27  1  0
 22 28  1  0
 27 28  1  0
 24 29  1  0
 24 30  1  0
 27 31  1  6
 28 32  1  6
 29 33  1  0
 29 34  2  0
 30 35  2  0
 33 35  1  0
 33 36  2  0
 34 37  1  0
 36 38  1  0
 36 39  1  0
 37 40  2  0
 39 40  1  0
 37 41  1  0
 40 42  1  0
 41 43  2  0
 42 44  1  0
 42 45  2  0
 43 45  1  0
M  END
>  <%Rank>  (150) 
59.126984

>  <N_hits>  (150) 
2

>  <submitter_name>  (150) 
nan

>  <original SMILES>  (150) 
nan

>  <∆G_unbound>  (150) 
9.369635

>  <∆G_bound>  (150) 
-7.157309

>  <regarded>  (150) 
mArh-3q6z_0_A,mArh-5lw0_A_0_A

>  <ref_pdb>  (150) 
nan

>  <smiles>  (150) 
NC1=c2ncn(C3OC(CO[P@](=O)(O)O[PH](O)(N=O)N(O)CC4C(O)C(O)C(O)N4O)C(O)C3O)c2=Nc2ncnc(N)c2N1

>  <submitter_email>  (150) 
nan

>  <disregarded>  (150) 


>  <LE>  (150) 
-0.367265

>  <submitter_institution>  (150) 
nan

>  <ref_mols>  (150) 
mArh-3q6z_0_A,mArh-5lw0_A_0_A

>  <N_constrained_atoms>  (150) 
45.0

>  <ref_url>  (150) 
nan

>  <method>  (150) 
nan

>  <comRMSD>  (150) 
1.011356

>  <N_unconstrained_atoms>  (150) 
0.0

>  <∆∆G>  (150) 
-16.526944

>  <runtime>  (150) 
67.939958

>  <generation_date>  (150) 
nan

$$$$
mArh-5cms_K_10_K-mArh-5cms_O_14_O
     RDKit          3D

 38 41  0  0  0  0  0  0  0  0999 V2000
   -1.4320   18.1000   -6.1710 P   0  0  1  0  0  0  0  0  0  0  0  0
    0.0330   17.4700   -6.2700 O   0  0  0  0  0  0  0  0  0  0  0  0
    0.7430   16.6490   -5.3630 C   0  0  0  0  0  0  0  0  0  0  0  0
   -2.5420   17.3290   -6.7890 O   0  0  0  0  0  0  0  0  0  0  0  0
   -1.7310   18.4200   -4.6400 O   0  0  0  0  0  0  0  0  0  0  0  0
   -1.2780   19.5140   -6.7750 O   0  0  0  0  0  0  0  0  0  0  0  0
   -0.2830   19.7890   -7.9630 P   0  0  1  0  0  0  0  0  0  0  0  0
    0.9550   20.5320   -7.6320 O   0  0  0  0  0  0  0  0  0  0  0  0
    0.0050   18.4250   -8.7540 O   0  0  0  0  0  0  0  0  0  0  0  0
   -1.2420   20.5510   -8.9490 O   0  0  0  0  0  0  0  0  0  0  0  0
   -0.0630   15.4830   -4.8360 C   0  0  2  0  0  0  0  0  0  0  0  0
   -1.6720   21.7260   -8.3300 C   0  0  1  0  0  0  0  0  0  0  0  0
   -0.3320   15.6060   -3.4650 O   0  0  0  0  0  0  0  0  0  0  0  0
    0.4090   14.0220   -4.9640 C   0  0  1  0  0  0  0  0  0  0  0  0
    1.7860   13.7490   -4.8210 O   0  0  0  0  0  0  0  0  0  0  0  0
   -0.4570   22.6230   -8.1720 C   0  0  0  0  0  0  0  0  0  0  0  0
   -0.4340   13.3400   -3.8600 C   0  0  1  0  0  0  0  0  0  0  0  0
   -1.2560   14.5470   -3.4060 C   0  0  1  0  0  0  0  0  0  0  0  0
   -2.9580   22.3220   -8.9130 C   0  0  1  0  0  0  0  0  0  0  0  0
   -1.1550   12.2710   -4.4610 O   0  0  0  0  0  0  0  0  0  0  0  0
   -2.9950   23.7710   -9.1980 C   0  0  1  0  0  0  0  0  0  0  0  0
   -3.6750   21.6830   -9.9910 N   0  0  0  0  0  0  0  0  0  0  0  0
   -2.0500   14.7170   -2.2190 N   0  0  0  0  0  0  0  0  0  0  0  0
   -1.7290   24.3470   -9.2790 O   0  0  0  0  0  0  0  0  0  0  0  0
   -4.8950   21.5420   -9.2450 O   0  0  0  0  0  0  0  0  0  0  0  0
   -4.1480   22.5980  -11.0220 C   0  0  2  0  0  0  0  0  0  0  0  0
   -3.9740   23.9820  -10.3940 C   0  0  2  0  0  0  0  0  0  0  0  0
   -1.7270   14.6990   -0.8840 C   0  0  0  0  0  0  0  0  0  0  0  0
   -3.3900   14.9700   -2.3170 C   0  0  0  0  0  0  0  0  0  0  0  0
   -5.5150   22.3830  -11.2780 O   0  0  0  0  0  0  0  0  0  0  0  0
   -3.5780   24.9930  -11.3500 O   0  0  0  0  0  0  0  0  0  0  0  0
   -2.9370   14.9660   -0.2510 C   0  0  0  0  0  0  0  0  0  0  0  0
   -0.5390   14.4910   -0.2950 N   0  0  0  0  0  0  0  0  0  0  0  0
   -3.9630   15.1270   -1.1560 N   0  0  0  0  0  0  0  0  0  0  0  0
   -2.9230   15.0330    1.1360 C   0  0  0  0  0  0  0  0  0  0  0  0
   -0.6540   14.5650    1.0500 C   0  0  0  0  0  0  0  0  0  0  0  0
   -4.0630   15.3210    1.8610 N   0  0  0  0  0  0  0  0  0  0  0  0
   -1.7570   14.8150    1.7880 N   0  0  0  0  0  0  0  0  0  0  0  0
  1  2  1  0
  2  3  1  0
  1  4  2  0
  1  5  1  1
  1  6  1  0
  6  7  1  0
  7  8  2  0
  7  9  1  6
  7 10  1  0
 11  3  1  1
 10 12  1  0
 11 13  1  0
 11 14  1  0
 14 15  1  1
 12 16  1  6
 14 17  1  0
 13 18  1  0
 17 18  1  0
 12 19  1  0
 17 20  1  6
 19 21  1  0
 19 22  1  6
 18 23  1  1
 21 24  1  6
 22 25  1  0
 22 26  1  0
 21 27  1  0
 26 27  1  0
 23 28  1  0
 23 29  1  0
 26 30  1  1
 27 31  1  6
 28 32  2  0
 28 33  1  0
 29 34  2  0
 32 34  1  0
 32 35  1  0
 33 36  2  0
 35 37  1  0
 35 38  2  0
 36 38  1  0
M  END
>  <%Rank>  (151) 
59.52381

>  <N_hits>  (151) 
2

>  <submitter_name>  (151) 
nan

>  <original SMILES>  (151) 
nan

>  <∆G_unbound>  (151) 
9.271423

>  <∆G_bound>  (151) 
-11.269983

>  <regarded>  (151) 
mArh-5cms_K_10_K,mArh-5cms_O_14_O

>  <ref_pdb>  (151) 
nan

>  <smiles>  (151) 
CC(O[P@](=O)(O)O[P@](=O)(O)OCC1OC(n2cnc3c(N)ncnc32)C(O)C1O)C1C(O)C(O)C(O)N1O

>  <submitter_email>  (151) 
nan

>  <disregarded>  (151) 


>  <LE>  (151) 
-0.540563

>  <submitter_institution>  (151) 
nan

>  <ref_mols>  (151) 
mArh-5cms_K_10_K,mArh-5cms_O_14_O

>  <N_constrained_atoms>  (151) 
38.0

>  <ref_url>  (151) 
nan

>  <method>  (151) 
nan

>  <comRMSD>  (151) 
1.046154

>  <N_unconstrained_atoms>  (151) 
0.0

>  <∆∆G>  (151) 
-20.541407

>  <runtime>  (151) 
49.562099

>  <generation_date>  (151) 
nan

$$$$
mArh-x0471_0_A-mArh-x0905_0_A
     RDKit          3D

 17 18  0  0  0  0  0  0  0  0999 V2000
   -9.0150   14.6260    2.8040 N   0  0  0  0  0  0  0  0  0  0  0  0
   -9.0910   15.2440    3.9920 C   0  0  0  0  0  0  0  0  0  0  0  0
   -9.4070   16.4420    4.1790 O   0  0  0  0  0  0  0  0  0  0  0  0
   -8.8560   14.0640    1.5820 C   0  0  0  0  0  0  0  0  0  0  0  0
   -8.7720   14.5020    5.2930 C   0  0  0  0  0  0  0  0  0  0  0  0
   -7.5650   14.3840    0.9400 C   0  0  0  0  0  0  0  0  0  0  0  0
   -9.9680   13.7200    5.7700 C   0  0  0  0  0  0  0  0  0  0  0  0
   -8.2830   15.5120    6.3090 C   0  0  0  0  0  0  0  0  0  0  0  0
   -7.2750   14.6970   -0.3120 N   0  0  0  0  0  0  0  0  0  0  0  0
   -6.3750   14.4100    1.6040 N   0  0  0  0  0  0  0  0  0  0  0  0
   -5.3840   14.7260    0.7750 C   0  0  0  0  0  0  0  0  0  0  0  0
   -5.9580   14.9100   -0.4440 C   0  0  0  0  0  0  0  0  0  0  0  0
   -5.1800   15.2400   -1.4730 C   0  0  0  0  0  0  0  0  0  0  0  0
   -4.0100   14.8760    0.9550 C   0  0  0  0  0  0  0  0  0  0  0  0
   -5.8160   15.4120   -2.6760 O   0  0  0  0  0  0  0  0  0  0  0  0
   -3.7950   15.4030   -1.3600 C   0  0  0  0  0  0  0  0  0  0  0  0
   -3.2100   15.2100   -0.1060 C   0  0  0  0  0  0  0  0  0  0  0  0
  1  2  1  0
  2  3  2  0
  1  4  1  0
  2  5  1  0
  4  6  1  0
  5  7  1  0
  5  8  1  0
  6  9  1  0
  6 10  2  0
 10 11  1  0
  9 12  1  0
 11 12  2  0
 12 13  1  0
 11 14  1  0
 13 15  1  0
 13 16  2  0
 14 17  2  0
 16 17  1  0
M  END
>  <%Rank>  (152) 
59.920635

>  <N_hits>  (152) 
2

>  <submitter_name>  (152) 
nan

>  <original SMILES>  (152) 
nan

>  <∆G_unbound>  (152) 
0.280046

>  <∆G_bound>  (152) 
-3.260487

>  <regarded>  (152) 
mArh-x0471_0_A,mArh-x0905_0_A

>  <ref_pdb>  (152) 
nan

>  <smiles>  (152) 
CC(C)C(=O)NCc1nc2cccc(O)c2[nH]1

>  <submitter_email>  (152) 
nan

>  <disregarded>  (152) 


>  <LE>  (152) 
-0.208267

>  <submitter_institution>  (152) 
nan

>  <ref_mols>  (152) 
mArh-x0471_0_A,mArh-x0905_0_A

>  <N_constrained_atoms>  (152) 
17.0

>  <ref_url>  (152) 
nan

>  <method>  (152) 
nan

>  <comRMSD>  (152) 
0.58807

>  <N_unconstrained_atoms>  (152) 
0.0

>  <∆∆G>  (152) 
-3.540533

>  <runtime>  (152) 
23.805649

>  <generation_date>  (152) 
nan

$$$$
mArh-5cms_G_3_G-mArh-2bfq_0_A
     RDKit          3D

 37 40  0  0  0  0  0  0  0  0999 V2000
   -1.2100   18.3100   -5.9410 P   0  0  0  0  0  0  0  0  0  0  0  0
   -0.1830   17.7150   -4.8760 O   0  0  0  0  0  0  0  0  0  0  0  0
    0.6400   16.6010   -5.0920 C   0  0  0  0  0  0  0  0  0  0  0  0
   -2.3140   18.8180   -4.9680 O   0  0  0  0  0  0  0  0  0  0  0  0
   -2.4620   17.4440   -6.7070 O   0  0  0  0  0  0  0  0  0  0  0  0
   -0.9650   19.8140   -6.4230 O   0  0  0  0  0  0  0  0  0  0  0  0
   -0.3400   20.0360   -7.9330 P   0  0  0  0  0  0  0  0  0  0  0  0
   -1.7420   20.3290   -8.3420 O   0  0  0  0  0  0  0  0  0  0  0  0
   -0.0880   18.7330   -8.8270 O   0  0  0  0  0  0  0  0  0  0  0  0
    0.0620   21.5180   -8.3930 O   0  0  0  0  0  0  0  0  0  0  0  0
   -0.2800   15.4870   -4.6890 C   0  0  2  0  0  0  0  0  0  0  0  0
    1.5960   22.1300   -7.5980 P   0  0  0  0  0  0  0  0  0  0  0  0
   -2.2530   21.5990   -8.6220 C   0  0  0  0  0  0  0  0  0  0  0  0
   -0.4550   15.4110   -3.3490 O   0  0  0  0  0  0  0  0  0  0  0  0
    0.0390   14.0900   -5.1490 C   0  0  1  0  0  0  0  0  0  0  0  0
    1.3710   13.7990   -4.9800 O   0  0  0  0  0  0  0  0  0  0  0  0
   -1.3970   14.4470   -3.3280 C   0  0  1  0  0  0  0  0  0  0  0  0
   -0.8630   13.3180   -4.2110 C   0  0  1  0  0  0  0  0  0  0  0  0
   -3.1190   22.1560   -7.5290 C   0  0  1  0  0  0  0  0  0  0  0  0
   -1.8250   12.6710   -4.9320 O   0  0  0  0  0  0  0  0  0  0  0  0
   -2.0110   14.0730   -2.1220 N   0  0  0  0  0  0  0  0  0  0  0  0
   -4.1750   23.1140   -8.0290 C   0  0  2  0  0  0  0  0  0  0  0  0
   -3.9260   21.2570   -6.8850 O   0  0  0  0  0  0  0  0  0  0  0  0
   -3.8130   24.1740   -8.7830 O   0  0  0  0  0  0  0  0  0  0  0  0
   -1.6040   14.7560   -0.9350 C   0  0  1  0  0  0  0  0  0  0  0  0
   -3.3650   14.3530   -2.2040 C   0  0  0  0  0  0  0  0  0  0  0  0
   -5.0190   21.9790   -6.3870 C   0  0  1  0  0  0  0  0  0  0  0  0
   -4.6070   23.4080   -6.6430 C   0  0  2  0  0  0  0  0  0  0  0  0
   -6.0920   21.7520   -7.2410 O   0  0  0  0  0  0  0  0  0  0  0  0
   -5.6310   24.3400   -6.5350 O   0  0  0  0  0  0  0  0  0  0  0  0
   -2.8760   15.1270   -0.3660 C   0  0  1  0  0  0  0  0  0  0  0  0
   -0.6670   14.0570   -0.0740 N   0  0  0  0  0  0  0  0  0  0  0  0
   -3.7960   14.1850   -0.8320 N   0  0  0  0  0  0  0  0  0  0  0  0
   -2.8430   15.3770    1.0920 C   0  0  1  0  0  0  0  0  0  0  0  0
   -0.6380   14.5660    1.2400 C   0  0  0  0  0  0  0  0  0  0  0  0
   -4.1460   15.5290    1.7050 N   0  0  0  0  0  0  0  0  0  0  0  0
   -1.9270   14.5040    1.8280 N   0  0  0  0  0  0  0  0  0  0  0  0
  1  2  1  0
  2  3  1  0
  1  4  1  0
  1  5  1  0
  1  6  1  0
  6  7  1  0
  7  8  1  0
  7  9  1  0
  7 10  1  0
 11  3  1  1
 10 12  1  0
  8 13  1  0
 11 14  1  0
 11 15  1  0
 15 16  1  1
 14 17  1  0
 15 18  1  0
 17 18  1  0
 19 13  1  6
 18 20  1  6
 17 21  1  1
 19 22  1  0
 19 23  1  0
 22 24  1  1
 21 25  1  0
 21 26  1  0
 23 27  1  0
 22 28  1  0
 27 28  1  0
 27 29  1  6
 28 30  1  6
 25 31  1  0
 25 32  1  1
 26 33  1  0
 31 33  1  1
 31 34  1  0
 32 35  1  0
 34 36  1  1
 34 37  1  0
 35 37  1  0
M  CHG  2   4  -1   9  -1
M  END
>  <%Rank>  (153) 
60.31746

>  <N_hits>  (153) 
2

>  <submitter_name>  (153) 
nan

>  <original SMILES>  (153) 
nan

>  <∆G_unbound>  (153) 
5.326559

>  <∆G_bound>  (153) 
-8.981324

>  <regarded>  (153) 
mArh-5cms_G_3_G,mArh-2bfq_0_A

>  <ref_pdb>  (153) 
nan

>  <smiles>  (153) 
NC1NCNC2C1NCN2C1OC(CO[PH]([O-])(O)O[PH]([O-])(O[P@H2])OCC2OC(O)C(O)C2O)C(O)C1O

>  <submitter_email>  (153) 
nan

>  <disregarded>  (153) 


>  <LE>  (153) 
-0.3867

>  <submitter_institution>  (153) 
nan

>  <ref_mols>  (153) 
mArh-5cms_G_3_G,mArh-2bfq_0_A

>  <N_constrained_atoms>  (153) 
37.0

>  <ref_url>  (153) 
nan

>  <method>  (153) 
nan

>  <comRMSD>  (153) 
0.962588

>  <N_unconstrained_atoms>  (153) 
0.0

>  <∆∆G>  (153) 
-14.307883

>  <runtime>  (153) 
27.54305

>  <generation_date>  (153) 
nan

$$$$
mArh-x0766_0_A-mArh-x0900_1_A
     RDKit          3D

 21 23  0  0  0  0  0  0  0  0999 V2000
    0.4150   12.2490   -2.5430 C   0  0  0  0  0  0  0  0  0  0  0  0
   -0.1400   11.2960   -3.3480 O   0  0  0  0  0  0  0  0  0  0  0  0
    0.5230   10.9510   -4.5830 C   0  0  0  0  0  0  0  0  0  0  0  0
    0.6610   12.1000   -1.3650 O   0  0  0  0  0  0  0  0  0  0  0  0
    0.6810   13.5700   -3.2170 C   0  0  1  0  0  0  0  0  0  0  0  0
    1.4530   13.6060   -4.5190 C   0  0  0  0  0  0  0  0  0  0  0  0
   -0.5400   14.3970   -3.5950 C   0  0  2  0  0  0  0  0  0  0  0  0
    0.0220    9.5880   -5.0540 C   0  0  0  0  0  0  0  0  0  0  0  0
    1.4570   15.1170   -4.7500 C   0  0  0  0  0  0  0  0  0  0  0  0
    0.1990   15.6540   -4.0610 C   0  0  0  0  0  0  0  0  0  0  0  0
   -1.5320   14.5860   -2.4680 C   0  0  0  0  0  0  0  0  0  0  0  0
   -2.8830   14.8230   -2.6750 C   0  0  0  0  0  0  0  0  0  0  0  0
   -1.2420   14.5520   -1.0620 C   0  0  0  0  0  0  0  0  0  0  0  0
   -0.6720    9.6200   -6.4100 C   0  0  1  0  0  0  0  0  0  0  0  0
   -2.3580   14.7600   -0.2790 C   0  0  0  0  0  0  0  0  0  0  0  0
   -3.7630   15.0010   -1.2220 S   0  0  0  0  0  0  0  0  0  0  0  0
    0.1010    9.3360   -7.5810 N   0  0  0  0  0  0  0  0  0  0  0  0
   -1.7650    8.5890   -6.5890 C   0  0  0  0  0  0  0  0  0  0  0  0
   -0.8130    9.3420   -8.6210 C   0  0  0  0  0  0  0  0  0  0  0  0
   -2.1120    8.8060   -8.0600 C   0  0  0  0  0  0  0  0  0  0  0  0
   -0.6090    9.7170   -9.7610 O   0  0  0  0  0  0  0  0  0  0  0  0
  1  2  1  0
  2  3  1  0
  1  4  2  0
  5  1  1  6
  5  6  1  0
  5  7  1  0
  3  8  1  0
  6  9  1  0
  7 10  1  0
  9 10  1  0
  7 11  1  1
 11 12  2  0
 11 13  1  0
 14  8  1  1
 13 15  2  0
 12 16  1  0
 15 16  1  0
 14 17  1  0
 14 18  1  0
 17 19  1  0
 18 20  1  0
 19 20  1  0
 19 21  2  0
M  END
>  <%Rank>  (154) 
60.714286

>  <N_hits>  (154) 
2

>  <submitter_name>  (154) 
nan

>  <original SMILES>  (154) 
nan

>  <∆G_unbound>  (154) 
0.322266

>  <∆G_bound>  (154) 
-5.82027

>  <regarded>  (154) 
mArh-x0766_0_A,mArh-x0900_1_A

>  <ref_pdb>  (154) 
nan

>  <smiles>  (154) 
O=C1CCC(CCOC(=O)C2CCCC2c2ccsc2)N1

>  <submitter_email>  (154) 
nan

>  <disregarded>  (154) 


>  <LE>  (154) 
-0.292502

>  <submitter_institution>  (154) 
nan

>  <ref_mols>  (154) 
mArh-x0766_0_A,mArh-x0900_1_A

>  <N_constrained_atoms>  (154) 
19.0

>  <ref_url>  (154) 
nan

>  <method>  (154) 
nan

>  <comRMSD>  (154) 
0.621996

>  <N_unconstrained_atoms>  (154) 
2.0

>  <∆∆G>  (154) 
-6.142537

>  <runtime>  (154) 
38.707831

>  <generation_date>  (154) 
nan

$$$$
mArh-x0926_0_A-mArh-x0766_0_A
     RDKit          3D

 18 20  0  0  0  0  0  0  0  0999 V2000
   -6.6320   15.0650   -0.4290 O   0  0  0  0  0  0  0  0  0  0  0  0
   -5.4060   15.1300   -0.4330 C   0  0  0  0  0  0  0  0  0  0  0  0
   -4.6320   15.1560    0.8280 C   0  0  0  0  0  0  0  0  0  0  0  0
   -4.6750   15.1680   -1.5950 N   0  0  0  0  0  0  0  0  0  0  0  0
   -3.3570   15.6340   -1.6870 N   0  0  0  0  0  0  0  0  0  0  0  0
   -3.3060   15.3490    0.8080 C   0  0  0  0  0  0  0  0  0  0  0  0
   -2.5240   15.5630   -0.4670 C   0  0  1  0  0  0  0  0  0  0  0  0
   -2.6080   15.1390   -2.8610 C   0  0  0  0  0  0  0  0  0  0  0  0
   -1.4230   14.3590   -2.2650 C   0  0  2  0  0  0  0  0  0  0  0  0
   -1.4590   14.4840   -0.7470 C   0  0  0  0  0  0  0  0  0  0  0  0
   -0.0110   14.7610   -2.8080 C   0  0  1  0  0  0  0  0  0  0  0  0
    0.9750   13.5970   -3.0760 C   0  0  1  0  0  0  0  0  0  0  0  0
    0.0580   15.6090   -4.0890 C   0  0  0  0  0  0  0  0  0  0  0  0
    0.5670   12.3440   -2.3520 C   0  0  0  0  0  0  0  0  0  0  0  0
    1.1530   13.5480   -4.5860 C   0  0  0  0  0  0  0  0  0  0  0  0
    1.2170   15.0320   -4.8960 C   0  0  0  0  0  0  0  0  0  0  0  0
    0.4160   12.3560   -1.1540 O   0  0  0  0  0  0  0  0  0  0  0  0
    0.3670   11.2250   -3.0600 O   0  0  0  0  0  0  0  0  0  0  0  0
  1  2  2  0
  2  3  1  0
  2  4  1  0
  4  5  1  0
  3  6  2  0
  5  7  1  0
  7  6  1  1
  5  8  1  0
  9  8  1  6
  7 10  1  0
  9 10  1  0
  9 11  1  0
 11 12  1  0
 11 13  1  6
 12 14  1  6
 12 15  1  0
 13 16  1  0
 15 16  1  0
 14 17  2  0
 14 18  1  0
M  END
>  <%Rank>  (155) 
61.111111

>  <N_hits>  (155) 
2

>  <submitter_name>  (155) 
nan

>  <original SMILES>  (155) 
nan

>  <∆G_unbound>  (155) 
0.489157

>  <∆G_bound>  (155) 
-5.646094

>  <regarded>  (155) 
mArh-x0926_0_A,mArh-x0766_0_A

>  <ref_pdb>  (155) 
nan

>  <smiles>  (155) 
O=C1C=CC2CC(C3CCCC3C(=O)O)CN2N1

>  <submitter_email>  (155) 
nan

>  <disregarded>  (155) 


>  <LE>  (155) 
-0.340847

>  <submitter_institution>  (155) 
nan

>  <ref_mols>  (155) 
mArh-x0926_0_A,mArh-x0766_0_A

>  <N_constrained_atoms>  (155) 
18.0

>  <ref_url>  (155) 
nan

>  <method>  (155) 
nan

>  <comRMSD>  (155) 
0.680146

>  <N_unconstrained_atoms>  (155) 
0.0

>  <∆∆G>  (155) 
-6.135251

>  <runtime>  (155) 
18.81989

>  <generation_date>  (155) 
nan

$$$$
mArh-x0969_0_A-mArh-5cms_O_14_O
     RDKit          3D

 46 51  0  0  0  0  0  0  0  0999 V2000
   -6.8400   14.6230    2.6620 N   0  0  0  0  0  0  0  0  0  0  0  0
   -6.9260   14.7090    1.3180 C   0  0  0  0  0  0  0  0  0  0  0  0
   -8.0330   14.5630    0.6400 N   0  0  0  0  0  0  0  0  0  0  0  0
   -5.8740   14.9740    0.4390 N   0  0  0  0  0  0  0  0  0  0  0  0
   -7.7650   14.7350   -0.6880 N   0  0  0  0  0  0  0  0  0  0  0  0
   -6.5000   14.9850   -0.8090 C   0  0  0  0  0  0  0  0  0  0  0  0
   -4.4850   15.2080    0.5640 C   0  0  0  0  0  0  0  0  0  0  0  0
   -3.7660   15.1500    1.6460 N   0  0  0  0  0  0  0  0  0  0  0  0
   -5.6870   15.2760   -2.0220 C   0  0  0  0  0  0  0  0  0  0  0  0
   -3.8160   15.4670   -0.5620 C   0  0  0  0  0  0  0  0  0  0  0  0
   -4.4060   15.5200   -1.8710 C   0  0  0  0  0  0  0  0  0  0  0  0
   -2.4540   14.8880    1.2580 C   0  0  0  0  0  0  0  0  0  0  0  0
   -1.3710   14.7590    2.0140 N   0  0  0  0  0  0  0  0  0  0  0  0
   -2.2650   14.7500   -0.1270 C   0  0  0  0  0  0  0  0  0  0  0  0
   -0.9990   14.5220   -0.6090 C   0  0  0  0  0  0  0  0  0  0  0  0
   -0.1880   14.5360    1.4240 C   0  0  0  0  0  0  0  0  0  0  0  0
   -3.1590   14.8040   -1.1710 N   0  0  0  0  0  0  0  0  0  0  0  0
    0.1050   14.4080    0.1130 N   0  0  0  0  0  0  0  0  0  0  0  0
   -1.1460   14.4390   -1.9760 N   0  0  0  0  0  0  0  0  0  0  0  0
   -2.4560   14.6130   -2.2580 C   0  0  0  0  0  0  0  0  0  0  0  0
   -0.0950   14.2070   -2.9180 C   0  0  2  0  0  0  0  0  0  0  0  0
    0.5430   15.4730   -3.1740 O   0  0  0  0  0  0  0  0  0  0  0  0
   -0.4530   13.7670   -4.1930 C   0  0  2  0  0  0  0  0  0  0  0  0
   -0.5940   12.3500   -4.2370 O   0  0  0  0  0  0  0  0  0  0  0  0
    0.9440   15.4960   -4.5530 C   0  0  1  0  0  0  0  0  0  0  0  0
    0.4440   14.1770   -5.1620 C   0  0  1  0  0  0  0  0  0  0  0  0
    0.4290   16.8050   -5.1480 C   0  0  0  0  0  0  0  0  0  0  0  0
    1.4290   13.1850   -5.3900 O   0  0  0  0  0  0  0  0  0  0  0  0
   -0.9980   16.8700   -5.1260 O   0  0  0  0  0  0  0  0  0  0  0  0
   -1.6190   18.0490   -5.9920 P   0  0  1  0  0  0  0  0  0  0  0  0
   -2.6130   17.6510   -7.0040 O   0  0  0  0  0  0  0  0  0  0  0  0
   -2.2870   19.0280   -4.9190 O   0  0  0  0  0  0  0  0  0  0  0  0
   -0.3930   18.9380   -6.3770 O   0  0  0  0  0  0  0  0  0  0  0  0
   -0.0650   19.6680   -7.7150 P   0  0  1  0  0  0  0  0  0  0  0  0
    1.0460   20.6610   -7.6340 O   0  0  0  0  0  0  0  0  0  0  0  0
    0.0110   18.5340   -8.8280 O   0  0  0  0  0  0  0  0  0  0  0  0
   -1.4390   20.3470   -8.0960 O   0  0  0  0  0  0  0  0  0  0  0  0
   -1.6050   21.6950   -7.7590 C   0  0  0  0  0  0  0  0  0  0  0  0
   -1.5700   22.4220   -9.0460 C   0  0  2  0  0  0  0  0  0  0  0  0
   -2.2290   23.7500   -8.9380 C   0  0  1  0  0  0  0  0  0  0  0  0
   -2.3200   21.6550  -10.0070 O   0  0  0  0  0  0  0  0  0  0  0  0
   -1.2860   24.7460   -9.2900 O   0  0  0  0  0  0  0  0  0  0  0  0
   -3.5350   22.3660  -10.2520 C   0  0  2  0  0  0  0  0  0  0  0  0
   -3.4420   23.6840   -9.8760 C   0  0  2  0  0  0  0  0  0  0  0  0
   -4.5200   21.7790   -9.4550 O   0  0  0  0  0  0  0  0  0  0  0  0
   -3.4260   24.6030  -10.9870 O   0  0  0  0  0  0  0  0  0  0  0  0
  1  2  1  0
  2  3  2  0
  2  4  1  0
  3  5  1  0
  4  6  1  0
  5  6  2  0
  4  7  1  0
  7  8  1  0
  6  9  1  0
  7 10  2  0
  9 11  2  0
 10 11  1  0
  8 12  1  0
 12 13  2  0
 12 14  1  0
 14 15  2  0
 13 16  1  0
 14 17  1  0
 15 18  1  0
 16 18  2  0
 15 19  1  0
 17 20  2  0
 19 20  1  0
 21 19  1  1
 21 22  1  0
 21 23  1  0
 23 24  1  1
 22 25  1  0
 23 26  1  0
 25 26  1  0
 25 27  1  6
 26 28  1  1
 27 29  1  0
 29 30  1  0
 30 31  2  0
 30 32  1  1
 30 33  1  0
 33 34  1  0
 34 35  2  0
 34 36  1  6
 34 37  1  0
 37 38  1  0
 39 38  1  1
 39 40  1  0
 39 41  1  0
 40 42  1  6
 41 43  1  0
 40 44  1  0
 43 44  1  0
 43 45  1  1
 44 46  1  6
M  END
>  <%Rank>  (156) 
61.507937

>  <N_hits>  (156) 
2

>  <submitter_name>  (156) 
nan

>  <original SMILES>  (156) 
nan

>  <∆G_unbound>  (156) 
4.857977

>  <∆G_bound>  (156) 
-7.715775

>  <regarded>  (156) 
mArh-x0969_0_A,mArh-5cms_O_14_O

>  <ref_pdb>  (156) 
nan

>  <smiles>  (156) 
Nc1nnc2cccc(Nc3ncnc4c3ncn4C3OC(CO[P@@](=O)(O)O[P@@](=O)(O)OCC4OC(O)C(O)C4O)C(O)C3O)n12

>  <submitter_email>  (156) 
nan

>  <disregarded>  (156) 


>  <LE>  (156) 
-0.273342

>  <submitter_institution>  (156) 
nan

>  <ref_mols>  (156) 
mArh-x0969_0_A,mArh-5cms_O_14_O

>  <N_constrained_atoms>  (156) 
46.0

>  <ref_url>  (156) 
nan

>  <method>  (156) 
nan

>  <comRMSD>  (156) 
0.982252

>  <N_unconstrained_atoms>  (156) 
0.0

>  <∆∆G>  (156) 
-12.573752

>  <runtime>  (156) 
49.817475

>  <generation_date>  (156) 
nan

$$$$
mArh-x0724_0_A-mArh-x0471_0_A
     RDKit          3D

 17 18  0  0  0  0  0  0  0  0999 V2000
   -8.1590   14.0550    4.4980 N   0  0  0  0  0  0  0  0  0  0  0  0
   -8.6840   14.1090    5.8510 C   0  0  0  0  0  0  0  0  0  0  0  0
  -10.1420   13.6840    5.9710 C   0  0  0  0  0  0  0  0  0  0  0  0
   -8.4020   14.9230    3.4750 C   0  0  0  0  0  0  0  0  0  0  0  0
   -9.2360   15.8180    3.6560 O   0  0  0  0  0  0  0  0  0  0  0  0
   -8.4050   15.4650    6.5010 C   0  0  0  0  0  0  0  0  0  0  0  0
   -7.7090   14.8110    2.2280 C   0  0  0  0  0  0  0  0  0  0  0  0
   -6.3530   14.8500    1.9870 C   0  0  0  0  0  0  0  0  0  0  0  0
   -8.2790   14.6450    0.9560 C   0  0  0  0  0  0  0  0  0  0  0  0
   -7.3690   14.5930   -0.0130 N   0  0  0  0  0  0  0  0  0  0  0  0
   -6.1810   14.7290    0.6280 N   0  0  0  0  0  0  0  0  0  0  0  0
   -4.9570   14.7470   -0.0920 C   0  0  0  0  0  0  0  0  0  0  0  0
   -3.7290   14.5860    0.5590 C   0  0  0  0  0  0  0  0  0  0  0  0
   -4.9960   14.9360   -1.4810 C   0  0  0  0  0  0  0  0  0  0  0  0
   -2.5480   14.6140   -0.1860 C   0  0  0  0  0  0  0  0  0  0  0  0
   -3.8160   14.9630   -2.2150 C   0  0  0  0  0  0  0  0  0  0  0  0
   -2.5910   14.8000   -1.5690 C   0  0  0  0  0  0  0  0  0  0  0  0
  1  2  1  0
  2  3  1  0
  1  4  1  0
  4  5  2  0
  2  6  1  0
  4  7  1  0
  7  8  2  0
  7  9  1  0
  9 10  2  0
  8 11  1  0
 10 11  1  0
 11 12  1  0
 12 13  2  0
 12 14  1  0
 13 15  1  0
 14 16  2  0
 15 17  2  0
 16 17  1  0
M  END
>  <%Rank>  (157) 
61.904762

>  <N_hits>  (157) 
2

>  <submitter_name>  (157) 
nan

>  <original SMILES>  (157) 
nan

>  <∆G_unbound>  (157) 
-0.063823

>  <∆G_bound>  (157) 
-5.187593

>  <regarded>  (157) 
mArh-x0724_0_A,mArh-x0471_0_A

>  <ref_pdb>  (157) 
nan

>  <smiles>  (157) 
CC(C)NC(=O)c1cnn(-c2ccccc2)c1

>  <submitter_email>  (157) 
nan

>  <disregarded>  (157) 


>  <LE>  (157) 
-0.301398

>  <submitter_institution>  (157) 
nan

>  <ref_mols>  (157) 
mArh-x0724_0_A,mArh-x0471_0_A

>  <N_constrained_atoms>  (157) 
17.0

>  <ref_url>  (157) 
nan

>  <method>  (157) 
nan

>  <comRMSD>  (157) 
0.645625

>  <N_unconstrained_atoms>  (157) 
0.0

>  <∆∆G>  (157) 
-5.123769

>  <runtime>  (157) 
24.930393

>  <generation_date>  (157) 
nan

$$$$
mArh-x0895_1_A-mArh-5cb5_I_0_I
     RDKit          3D

 38 41  0  0  0  0  0  0  0  0999 V2000
   -2.0960   13.7790    1.7260 O   0  0  0  0  0  0  0  0  0  0  0  0
   -2.5000   14.2370    0.4340 C   0  0  1  0  0  0  0  0  0  0  0  0
   -3.8130   13.8690    0.1740 N   0  0  0  0  0  0  0  0  0  0  0  0
   -2.5480   15.7040    0.7080 C   0  0  1  0  0  0  0  0  0  0  0  0
   -1.5300   14.1140   -0.7990 C   0  0  1  0  0  0  0  0  0  0  0  0
   -3.5840   15.9980    1.7170 N   0  0  0  0  0  0  0  0  0  0  0  0
   -2.2040   14.7380   -2.1040 C   0  0  1  0  0  0  0  0  0  0  0  0
   -4.4160   14.6070   -0.7440 C   0  0  0  0  0  0  0  0  0  0  0  0
   -1.2500   16.0960    1.1440 N   0  0  0  0  0  0  0  0  0  0  0  0
   -0.2110   14.7190   -0.4740 N   0  0  0  0  0  0  0  0  0  0  0  0
   -5.6050   14.9070   -0.5840 O   0  0  0  0  0  0  0  0  0  0  0  0
   -3.6280   15.0150   -1.8460 N   0  0  0  0  0  0  0  0  0  0  0  0
   -1.4980   16.0020   -2.4760 O   0  0  0  0  0  0  0  0  0  0  0  0
   -1.9470   13.9040   -3.4410 C   0  0  2  0  0  0  0  0  0  0  0  0
   -0.1700   15.1690    0.9030 C   0  0  0  0  0  0  0  0  0  0  0  0
   -1.2730   12.6460   -3.2310 O   0  0  0  0  0  0  0  0  0  0  0  0
   -0.4730   15.7980   -3.5160 C   0  0  1  0  0  0  0  0  0  0  0  0
   -1.0480   14.7180   -4.4120 C   0  0  1  0  0  0  0  0  0  0  0  0
   -0.0290   17.0980   -4.2370 C   0  0  0  0  0  0  0  0  0  0  0  0
   -0.0240   13.8880   -4.9900 O   0  0  0  0  0  0  0  0  0  0  0  0
   -0.3820   17.1070   -5.6300 O   0  0  0  0  0  0  0  0  0  0  0  0
   -1.5640   18.0830   -6.0730 P   0  0  1  0  0  0  0  0  0  0  0  0
   -2.5880   17.4790   -6.9500 O   0  0  0  0  0  0  0  0  0  0  0  0
   -2.1800   18.4640   -4.6830 O   0  0  0  0  0  0  0  0  0  0  0  0
   -0.9790   19.4590   -6.5430 O   0  0  0  0  0  0  0  0  0  0  0  0
   -0.2430   19.8630   -7.8640 P   0  0  1  0  0  0  0  0  0  0  0  0
    1.0390   20.5680   -7.6150 O   0  0  0  0  0  0  0  0  0  0  0  0
   -0.0200   18.5240   -8.7220 O   0  0  0  0  0  0  0  0  0  0  0  0
   -1.2850   20.6600   -8.7480 O   0  0  0  0  0  0  0  0  0  0  0  0
   -1.9520   21.7390   -8.1230 C   0  0  0  0  0  0  0  0  0  0  0  0
   -3.3010   21.9540   -8.8040 C   0  0  2  0  0  0  0  0  0  0  0  0
   -3.8840   23.3610   -8.4440 C   0  0  1  0  0  0  0  0  0  0  0  0
   -4.2500   20.9800   -8.2920 O   0  0  0  0  0  0  0  0  0  0  0  0
   -4.7550   23.8790   -9.4670 O   0  0  0  0  0  0  0  0  0  0  0  0
   -5.2140   21.6250   -7.4720 C   0  0  2  0  0  0  0  0  0  0  0  0
   -4.6940   23.0430   -7.1940 C   0  0  2  0  0  0  0  0  0  0  0  0
   -5.2420   20.9050   -6.2430 O   0  0  0  0  0  0  0  0  0  0  0  0
   -5.7310   23.9800   -6.9440 O   0  0  0  0  0  0  0  0  0  0  0  0
  2  1  1  1
  2  3  1  0
  2  4  1  0
  2  5  1  0
  4  6  1  1
  5  7  1  0
  3  8  1  0
  4  9  1  0
  5 10  1  1
  8 11  2  0
  7 12  1  1
  8 12  1  0
  7 13  1  0
  7 14  1  0
  9 15  1  0
 10 15  1  0
 14 16  1  1
 13 17  1  0
 14 18  1  0
 17 18  1  0
 17 19  1  6
 18 20  1  1
 19 21  1  0
 21 22  1  0
 22 23  2  0
 22 24  1  1
 22 25  1  0
 25 26  1  0
 26 27  2  0
 26 28  1  6
 26 29  1  0
 29 30  1  0
 31 30  1  1
 31 32  1  0
 31 33  1  0
 32 34  1  6
 33 35  1  0
 32 36  1  0
 35 36  1  0
 35 37  1  1
 36 38  1  6
M  END
>  <%Rank>  (158) 
62.301587

>  <N_hits>  (158) 
2

>  <submitter_name>  (158) 
nan

>  <original SMILES>  (158) 
nan

>  <∆G_unbound>  (158) 
7.012888

>  <∆G_bound>  (158) 
-9.496285

>  <regarded>  (158) 
mArh-x0895_1_A,mArh-5cb5_I_0_I

>  <ref_pdb>  (158) 
nan

>  <smiles>  (158) 
NC1NCNC2C1(O)NC(=O)NC21OC(CO[P@@](=O)(O)O[P@@](=O)(O)OCC2OC(O)C(O)C2O)C(O)C1O

>  <submitter_email>  (158) 
nan

>  <disregarded>  (158) 


>  <LE>  (158) 
-0.434452

>  <submitter_institution>  (158) 
nan

>  <ref_mols>  (158) 
mArh-x0895_1_A,mArh-5cb5_I_0_I

>  <N_constrained_atoms>  (158) 
38.0

>  <ref_url>  (158) 
nan

>  <method>  (158) 
nan

>  <comRMSD>  (158) 
1.006676

>  <N_unconstrained_atoms>  (158) 
0.0

>  <∆∆G>  (158) 
-16.509173

>  <runtime>  (158) 
39.848853

>  <generation_date>  (158) 
nan

$$$$
mArh-x0766_0_A-mArh-x0438_0_A
     RDKit          3D

 25 28  0  0  0  0  0  0  0  0999 V2000
    0.4710   12.3450   -2.3810 C   0  0  0  0  0  0  0  0  0  0  0  0
    0.0790   11.2980   -3.1270 O   0  0  0  0  0  0  0  0  0  0  0  0
    0.4380   12.3120   -1.1760 O   0  0  0  0  0  0  0  0  0  0  0  0
    0.9550   13.5390   -3.1300 C   0  0  1  0  0  0  0  0  0  0  0  0
    1.0980   13.5000   -4.6420 C   0  0  0  0  0  0  0  0  0  0  0  0
    0.2010   14.8470   -2.7450 C   0  0  1  0  0  0  0  0  0  0  0  0
    1.3270   14.9760   -4.8610 C   0  0  0  0  0  0  0  0  0  0  0  0
    0.4250   15.7820   -3.9490 C   0  0  0  0  0  0  0  0  0  0  0  0
   -1.2590   14.8450   -2.3310 C   0  0  0  0  0  0  0  0  0  0  0  0
   -2.3710   15.0000   -3.1200 C   0  0  0  0  0  0  0  0  0  0  0  0
   -1.5850   14.6710   -0.7560 C   0  0  0  0  0  0  0  0  0  0  0  0
   -2.9160   14.7130   -0.4520 C   0  0  0  0  0  0  0  0  0  0  0  0
   -3.6710   14.9200   -1.9730 S   0  0  0  0  0  0  0  0  0  0  0  0
   -5.4220   14.9840   -1.9790 C   0  0  0  0  0  0  0  0  0  0  0  0
   -3.7490   14.6210    0.7320 C   0  0  0  0  0  0  0  0  0  0  0  0
   -5.1320   14.6420    0.6280 C   0  0  0  0  0  0  0  0  0  0  0  0
   -5.9700   14.7720   -0.6280 C   0  0  0  0  0  0  0  0  0  0  0  0
   -7.2510   14.6230   -0.4030 N   0  0  0  0  0  0  0  0  0  0  0  0
   -6.0410   14.5010    1.6490 N   0  0  0  0  0  0  0  0  0  0  0  0
   -7.3240   14.4230    0.9600 C   0  0  0  0  0  0  0  0  0  0  0  0
   -8.6470   14.1270    1.5820 C   0  0  0  0  0  0  0  0  0  0  0  0
   -9.3220   15.3830    2.6290 S   0  0  0  0  0  0  0  0  0  0  0  0
   -8.1510   15.6390    3.9470 C   0  0  0  0  0  0  0  0  0  0  0  0
  -10.5380   14.8660    3.2220 O   0  0  0  0  0  0  0  0  0  0  0  0
   -9.4010   16.5820    1.8270 O   0  0  0  0  0  0  0  0  0  0  0  0
  1  2  1  0
  1  3  2  0
  4  1  1  6
  4  5  1  0
  4  6  1  0
  5  7  1  0
  6  8  1  0
  7  8  1  0
  6  9  1  6
  9 10  2  0
  9 11  1  0
 11 12  2  0
 10 13  1  0
 12 13  1  0
 13 14  2  0
 12 15  1  0
 15 16  2  0
 14 17  1  0
 16 17  1  0
 17 18  2  0
 16 19  1  0
 18 20  1  0
 19 20  2  0
 20 21  1  0
 22 21  1  0
 22 23  1  0
 22 24  2  0
 22 25  2  0
M  END
>  <%Rank>  (159) 
62.698413

>  <N_hits>  (159) 
2

>  <submitter_name>  (159) 
nan

>  <original SMILES>  (159) 
nan

>  <∆G_unbound>  (159) 
0.721029

>  <∆G_bound>  (159) 
-6.798533

>  <regarded>  (159) 
mArh-x0766_0_A,mArh-x0438_0_A

>  <ref_pdb>  (159) 
nan

>  <smiles>  (159) 
CS(=O)(=O)CC1=NC2=CC3=CC(C4CCCC4C(=O)O)=CS3=CC2=N1

>  <submitter_email>  (159) 
nan

>  <disregarded>  (159) 


>  <LE>  (159) 
-0.300783

>  <submitter_institution>  (159) 
nan

>  <ref_mols>  (159) 
mArh-x0766_0_A,mArh-x0438_0_A

>  <N_constrained_atoms>  (159) 
25.0

>  <ref_url>  (159) 
nan

>  <method>  (159) 
nan

>  <comRMSD>  (159) 
0.792326

>  <N_unconstrained_atoms>  (159) 
0.0

>  <∆∆G>  (159) 
-7.519563

>  <runtime>  (159) 
22.134696

>  <generation_date>  (159) 
nan

$$$$
mArh-x1012_0_A-mArh-x0900_1_A
     RDKit          3D

 20 21  0  0  0  0  0  0  0  0999 V2000
   -0.2860   18.1540   -4.6520 N   0  0  0  0  0  0  0  0  0  0  0  0
   -1.2240   17.1900   -4.7690 C   0  0  0  0  0  0  0  0  0  0  0  0
   -2.3950   17.5370   -4.7780 O   0  0  0  0  0  0  0  0  0  0  0  0
   -0.7910   15.8820   -4.8350 N   0  0  0  0  0  0  0  0  0  0  0  0
   -1.7270   14.7530   -4.7620 C   0  0  0  0  0  0  0  0  0  0  0  0
    0.6500   15.5900   -4.6770 C   0  0  0  0  0  0  0  0  0  0  0  0
   -1.4590   13.8620   -3.5630 C   0  0  0  0  0  0  0  0  0  0  0  0
    0.9510   14.6010   -3.5340 C   0  0  0  0  0  0  0  0  0  0  0  0
   -0.0070   13.3880   -3.5610 C   0  0  0  0  0  0  0  0  0  0  0  0
    0.1790   12.4200   -2.3870 C   0  0  0  0  0  0  0  0  0  0  0  0
   -0.0540   11.1130   -2.7600 O   0  0  0  0  0  0  0  0  0  0  0  0
    0.4870   12.7400   -1.2450 O   0  0  0  0  0  0  0  0  0  0  0  0
   -1.0070   10.8310   -3.8260 C   0  0  0  0  0  0  0  0  0  0  0  0
   -0.2590   10.1520   -4.9660 C   0  0  0  0  0  0  0  0  0  0  0  0
   -1.0090    9.8800   -6.2740 C   0  0  1  0  0  0  0  0  0  0  0  0
   -0.1680    9.7570   -7.4320 N   0  0  0  0  0  0  0  0  0  0  0  0
   -1.6960    8.5320   -6.3770 C   0  0  0  0  0  0  0  0  0  0  0  0
   -0.9600    9.3620   -8.4780 C   0  0  0  0  0  0  0  0  0  0  0  0
   -2.0540    8.5120   -7.8710 C   0  0  0  0  0  0  0  0  0  0  0  0
   -0.8030    9.6540   -9.6510 O   0  0  0  0  0  0  0  0  0  0  0  0
  1  2  1  0
  2  3  2  0
  2  4  1  0
  4  5  1  0
  4  6  1  0
  5  7  1  0
  6  8  1  0
  7  9  1  0
  8  9  1  0
  9 10  1  0
 10 11  1  0
 10 12  2  0
 11 13  1  0
 13 14  1  0
 15 14  1  1
 15 16  1  0
 15 17  1  0
 16 18  1  0
 17 19  1  0
 18 19  1  0
 18 20  2  0
M  END
>  <%Rank>  (160) 
63.095238

>  <N_hits>  (160) 
2

>  <submitter_name>  (160) 
nan

>  <original SMILES>  (160) 
nan

>  <∆G_unbound>  (160) 
0.294539

>  <∆G_bound>  (160) 
-6.419421

>  <regarded>  (160) 
mArh-x1012_0_A,mArh-x0900_1_A

>  <ref_pdb>  (160) 
nan

>  <smiles>  (160) 
NC(=O)N1CCC(C(=O)OCCC2CCC(=O)N2)CC1

>  <submitter_email>  (160) 
nan

>  <disregarded>  (160) 


>  <LE>  (160) 
-0.335698

>  <submitter_institution>  (160) 
nan

>  <ref_mols>  (160) 
mArh-x1012_0_A,mArh-x0900_1_A

>  <N_constrained_atoms>  (160) 
18.0

>  <ref_url>  (160) 
nan

>  <method>  (160) 
nan

>  <comRMSD>  (160) 
0.633178

>  <N_unconstrained_atoms>  (160) 
2.0

>  <∆∆G>  (160) 
-6.71396

>  <runtime>  (160) 
35.69264

>  <generation_date>  (160) 
nan

$$$$
mArh-5cms_P_15_P-mArh-x0685_1_A
     RDKit          3D

 47 51  0  0  0  0  0  0  0  0999 V2000
   -1.6420   17.9720   -6.0940 P   0  0  1  0  0  0  0  0  0  0  0  0
   -0.3030   17.0710   -6.2420 O   0  0  0  0  0  0  0  0  0  0  0  0
    0.5690   16.5320   -5.2330 C   0  0  0  0  0  0  0  0  0  0  0  0
   -2.8550   17.3330   -6.6600 O   0  0  0  0  0  0  0  0  0  0  0  0
   -1.7320   18.3460   -4.5570 O   0  0  0  0  0  0  0  0  0  0  0  0
   -1.3710   19.3740   -6.7530 O   0  0  0  0  0  0  0  0  0  0  0  0
   -0.2290   19.6360   -7.7960 P   0  0  1  0  0  0  0  0  0  0  0  0
    1.0680   20.1560   -7.3030 O   0  0  0  0  0  0  0  0  0  0  0  0
   -0.0490   18.2780   -8.5960 O   0  0  0  0  0  0  0  0  0  0  0  0
   -0.9000   20.3600   -9.0270 O   0  0  0  0  0  0  0  0  0  0  0  0
   -0.0710   15.7160   -4.0670 C   0  0  1  0  0  0  0  0  0  0  0  0
   -1.7760   21.4420   -8.8660 C   0  0  0  0  0  0  0  0  0  0  0  0
   -1.4920   15.7930   -4.0800 O   0  0  0  0  0  0  0  0  0  0  0  0
    0.1900   14.2090   -3.8140 C   0  0  2  0  0  0  0  0  0  0  0  0
    1.2740   13.4640   -4.2610 O   0  0  0  0  0  0  0  0  0  0  0  0
   -1.1110   13.4420   -3.8680 C   0  0  1  0  0  0  0  0  0  0  0  0
   -2.0640   14.5640   -3.5470 C   0  0  1  0  0  0  0  0  0  0  0  0
   -1.9420   22.0900  -10.2370 C   0  0  2  0  0  0  0  0  0  0  0  0
   -1.3980   12.7480   -5.1020 O   0  0  0  0  0  0  0  0  0  0  0  0
    1.7260   12.4030   -3.1360 S   0  0  0  0  0  0  0  0  0  0  0  0
   -1.2640   23.4410  -10.4120 C   0  0  1  0  0  0  0  0  0  0  0  0
   -3.3350   22.2690  -10.5090 O   0  0  0  0  0  0  0  0  0  0  0  0
   -2.5050   14.7750   -2.1630 N   0  0  0  0  0  0  0  0  0  0  0  0
    0.0700   23.3890  -10.9100 O   0  0  0  0  0  0  0  0  0  0  0  0
   -1.3420   11.2750   -4.9540 N   0  0  0  0  0  0  0  0  0  0  0  0
    3.1550   12.2760   -3.1950 O   0  0  0  0  0  0  0  0  0  0  0  0
    0.8130   11.2760   -3.0660 O   0  0  0  0  0  0  0  0  0  0  0  0
    1.4310   13.2310   -1.7860 O   0  0  0  0  0  0  0  0  0  0  0  0
   -3.4330   23.2790  -11.4980 C   0  0  2  0  0  0  0  0  0  0  0  0
   -2.2210   24.1920  -11.3340 C   0  0  2  0  0  0  0  0  0  0  0  0
   -1.9190   14.6750   -0.8870 C   0  0  0  0  0  0  0  0  0  0  0  0
   -3.7960   15.1680   -1.9730 C   0  0  0  0  0  0  0  0  0  0  0  0
   -4.6010   24.0510  -11.2420 O   0  0  0  0  0  0  0  0  0  0  0  0
   -1.6510   24.7020  -12.5120 O   0  0  0  0  0  0  0  0  0  0  0  0
   -2.9640   15.0320   -0.0450 C   0  0  0  0  0  0  0  0  0  0  0  0
   -0.6760   14.3360   -0.4550 N   0  0  0  0  0  0  0  0  0  0  0  0
   -4.1020   15.3300   -0.7290 N   0  0  0  0  0  0  0  0  0  0  0  0
   -0.7680   10.7370   -6.2130 C   0  0  0  0  0  0  0  0  0  0  0  0
   -2.7580   15.0510    1.3140 C   0  0  0  0  0  0  0  0  0  0  0  0
   -0.5870   14.3860    0.9050 C   0  0  0  0  0  0  0  0  0  0  0  0
   -0.6880    9.1970   -6.1940 C   0  0  0  0  0  0  0  0  0  0  0  0
   -1.5960   11.2200   -7.4110 C   0  0  0  0  0  0  0  0  0  0  0  0
   -3.8080   15.4170    2.1410 N   0  0  0  0  0  0  0  0  0  0  0  0
   -1.5440   14.7160    1.8080 N   0  0  0  0  0  0  0  0  0  0  0  0
   -0.0860    8.6580   -7.4980 C   0  0  0  0  0  0  0  0  0  0  0  0
   -1.0250   10.7050   -8.7340 C   0  0  0  0  0  0  0  0  0  0  0  0
   -0.8450    9.1870   -8.7220 C   0  0  0  0  0  0  0  0  0  0  0  0
  1  2  1  0
  2  3  1  0
  1  4  2  0
  1  5  1  1
  1  6  1  0
  6  7  1  0
  7  8  2  0
  7  9  1  6
  7 10  1  0
 11  3  1  6
 10 12  1  0
 11 13  1  0
 11 14  1  0
 14 15  1  6
 14 16  1  0
 13 17  1  0
 16 17  1  0
 18 12  1  1
 16 19  1  6
 20 15  1  0
 18 21  1  0
 18 22  1  0
 17 23  1  1
 21 24  1  6
 19 25  1  0
 20 26  2  0
 20 27  2  0
 20 28  1  0
 22 29  1  0
 21 30  1  0
 29 30  1  0
 23 31  1  0
 23 32  1  0
 29 33  1  1
 30 34  1  6
 31 35  2  0
 31 36  1  0
 32 37  2  0
 35 37  1  0
 25 38  1  0
 35 39  1  0
 36 40  2  0
 38 41  1  0
 38 42  1  0
 39 43  1  0
 39 44  2  0
 40 44  1  0
 41 45  1  0
 42 46  1  0
 45 47  1  0
 46 47  1  0
M  END
>  <%Rank>  (161) 
63.492063

>  <N_hits>  (161) 
2

>  <submitter_name>  (161) 
nan

>  <original SMILES>  (161) 
nan

>  <∆G_unbound>  (161) 
6.022294

>  <∆G_bound>  (161) 
-10.10093

>  <regarded>  (161) 
mArh-5cms_P_15_P,mArh-x0685_1_A

>  <ref_pdb>  (161) 
nan

>  <smiles>  (161) 
Nc1ncnc2c1ncn2C1OC(CO[P@@](=O)(O)O[P@@](=O)(O)OCC2OC(O)C(O)C2O)C(OS(=O)(=O)O)C1ONC1CCCCC1

>  <submitter_email>  (161) 
nan

>  <disregarded>  (161) 


>  <LE>  (161) 
-0.343047

>  <submitter_institution>  (161) 
nan

>  <ref_mols>  (161) 
mArh-5cms_P_15_P,mArh-x0685_1_A

>  <N_constrained_atoms>  (161) 
47.0

>  <ref_url>  (161) 
nan

>  <method>  (161) 
nan

>  <comRMSD>  (161) 
1.038961

>  <N_unconstrained_atoms>  (161) 
0.0

>  <∆∆G>  (161) 
-16.123224

>  <runtime>  (161) 
58.565998

>  <generation_date>  (161) 
nan

$$$$
mArh-5cms_R_17_R-mArh-6fx_7_0A
     RDKit          3D

 38 41  0  0  0  0  0  0  0  0999 V2000
   -1.5490   17.9450   -5.9410 P   0  0  1  0  0  0  0  0  0  0  0  0
   -0.8480   16.5870   -5.4870 O   0  0  0  0  0  0  0  0  0  0  0  0
    0.5660   16.6630   -5.2840 C   0  0  0  0  0  0  0  0  0  0  0  0
   -2.6360   17.8260   -6.9380 O   0  0  0  0  0  0  0  0  0  0  0  0
   -1.9480   18.6190   -4.5530 O   0  0  0  0  0  0  0  0  0  0  0  0
   -0.2810   18.8070   -6.2570 O   0  0  0  0  0  0  0  0  0  0  0  0
   -0.0040   19.5890   -7.5690 P   0  0  1  0  0  0  0  0  0  0  0  0
    1.1210   20.5650   -7.5350 O   0  0  0  0  0  0  0  0  0  0  0  0
    0.1560   18.4570   -8.6950 O   0  0  0  0  0  0  0  0  0  0  0  0
   -1.3750   20.2190   -7.9380 O   0  0  0  0  0  0  0  0  0  0  0  0
    1.0980   15.3850   -4.6410 C   0  0  1  0  0  0  0  0  0  0  0  0
   -1.2680   21.1940   -8.9110 C   0  0  0  0  0  0  0  0  0  0  0  0
    0.6510   15.3650   -3.2840 O   0  0  0  0  0  0  0  0  0  0  0  0
    0.5800   14.0800   -5.3150 C   0  0  1  0  0  0  0  0  0  0  0  0
    1.6300   13.2210   -5.7810 O   0  0  0  0  0  0  0  0  0  0  0  0
   -0.2770   13.4090   -4.2150 C   0  0  0  0  0  0  0  0  0  0  0  0
   -0.5910   14.6970   -3.4500 C   0  0  1  0  0  0  0  0  0  0  0  0
   -2.5710   21.9060   -8.9130 C   0  0  1  0  0  0  0  0  0  0  0  0
    0.4510   12.4350   -3.4990 O   0  0  0  0  0  0  0  0  0  0  0  0
   -1.4010   12.7360   -4.7610 O   0  0  0  0  0  0  0  0  0  0  0  0
   -2.6130   23.4090   -8.6460 C   0  0  1  0  0  0  0  0  0  0  0  0
   -3.3090   21.7020  -10.1260 O   0  0  0  0  0  0  0  0  0  0  0  0
   -1.4720   14.7580   -2.3100 N   0  0  0  0  0  0  0  0  0  0  0  0
   -1.4820   24.2030   -8.8910 O   0  0  0  0  0  0  0  0  0  0  0  0
   -4.4370   22.4160   -9.6960 C   0  0  0  0  0  0  0  0  0  0  0  0
   -3.8440   23.7710   -9.4830 C   0  0  2  0  0  0  0  0  0  0  0  0
   -1.2290   14.7570   -0.9550 C   0  0  0  0  0  0  0  0  0  0  0  0
   -2.8270   14.8610   -2.4880 C   0  0  0  0  0  0  0  0  0  0  0  0
   -4.9260   21.9250   -8.4860 O   0  0  0  0  0  0  0  0  0  0  0  0
   -3.6970   24.4920  -10.7020 O   0  0  0  0  0  0  0  0  0  0  0  0
   -5.4980   22.4570  -10.6100 O   0  0  0  0  0  0  0  0  0  0  0  0
   -2.4990   14.8830   -0.3930 C   0  0  0  0  0  0  0  0  0  0  0  0
   -0.0730   14.6740   -0.2810 N   0  0  0  0  0  0  0  0  0  0  0  0
   -3.4770   14.9400   -1.3570 N   0  0  0  0  0  0  0  0  0  0  0  0
   -2.5870   14.9400    1.0020 C   0  0  0  0  0  0  0  0  0  0  0  0
   -0.2950   14.7250    1.0510 C   0  0  0  0  0  0  0  0  0  0  0  0
   -3.7970   15.1030    1.6520 N   0  0  0  0  0  0  0  0  0  0  0  0
   -1.4580   14.8460    1.7230 N   0  0  0  0  0  0  0  0  0  0  0  0
  1  2  1  0
  2  3  1  0
  1  4  2  0
  1  5  1  1
  1  6  1  0
  6  7  1  0
  7  8  2  0
  7  9  1  6
  7 10  1  0
 11  3  1  6
 10 12  1  0
 11 13  1  0
 11 14  1  0
 14 15  1  1
 14 16  1  0
 13 17  1  0
 16 17  1  0
 18 12  1  6
 16 19  1  0
 16 20  1  0
 18 21  1  0
 18 22  1  0
 17 23  1  1
 21 24  1  6
 22 25  1  0
 21 26  1  0
 25 26  1  0
 23 27  1  0
 23 28  1  0
 25 29  1  0
 26 30  1  6
 25 31  1  0
 27 32  2  0
 27 33  1  0
 28 34  2  0
 32 34  1  0
 32 35  1  0
 33 36  2  0
 35 37  1  0
 35 38  2  0
 36 38  1  0
M  END
>  <%Rank>  (162) 
63.888889

>  <N_hits>  (162) 
2

>  <submitter_name>  (162) 
nan

>  <original SMILES>  (162) 
nan

>  <∆G_unbound>  (162) 
3.039553

>  <∆G_bound>  (162) 
-11.381724

>  <regarded>  (162) 
mArh-5cms_R_17_R,mArh-6fx_7_0A

>  <ref_pdb>  (162) 
nan

>  <smiles>  (162) 
Nc1ncnc2c1ncn2C1OC(CO[P@@](=O)(O)O[P@@](=O)(O)OCC2OC(O)(O)C(O)C2O)C(O)C1(O)O

>  <submitter_email>  (162) 
nan

>  <disregarded>  (162) 


>  <LE>  (162) 
-0.379507

>  <submitter_institution>  (162) 
nan

>  <ref_mols>  (162) 
mArh-5cms_R_17_R,mArh-6fx_7_0A

>  <N_constrained_atoms>  (162) 
38.0

>  <ref_url>  (162) 
nan

>  <method>  (162) 
nan

>  <comRMSD>  (162) 
0.992589

>  <N_unconstrained_atoms>  (162) 
0.0

>  <∆∆G>  (162) 
-14.421276

>  <runtime>  (162) 
45.326804

>  <generation_date>  (162) 
nan

$$$$
mArh-x0895_1_A-mArh-5cb5_A_0_A
     RDKit          3D

 38 41  0  0  0  0  0  0  0  0999 V2000
   -2.1310   13.7820    1.7380 O   0  0  0  0  0  0  0  0  0  0  0  0
   -2.6060   14.2900    0.4800 C   0  0  1  0  0  0  0  0  0  0  0  0
   -3.9040   13.8680    0.2940 N   0  0  0  0  0  0  0  0  0  0  0  0
   -2.6890   15.7540    0.7450 C   0  0  1  0  0  0  0  0  0  0  0  0
   -1.6360   14.1250   -0.7420 C   0  0  1  0  0  0  0  0  0  0  0  0
   -3.6710   16.0550    1.8010 N   0  0  0  0  0  0  0  0  0  0  0  0
   -2.3180   14.6940   -2.0490 C   0  0  1  0  0  0  0  0  0  0  0  0
   -4.5440   14.5670   -0.6350 C   0  0  0  0  0  0  0  0  0  0  0  0
   -1.3970   16.1160    1.2090 N   0  0  0  0  0  0  0  0  0  0  0  0
   -0.3560   14.8070   -0.4590 N   0  0  0  0  0  0  0  0  0  0  0  0
   -5.7360   14.8470   -0.4720 O   0  0  0  0  0  0  0  0  0  0  0  0
   -3.7850   14.9600   -1.7510 N   0  0  0  0  0  0  0  0  0  0  0  0
   -1.6240   15.9420   -2.4730 O   0  0  0  0  0  0  0  0  0  0  0  0
   -2.1120   13.7940   -3.3730 C   0  0  2  0  0  0  0  0  0  0  0  0
   -0.3010   15.1930    0.9060 C   0  0  0  0  0  0  0  0  0  0  0  0
   -1.7310   12.4350   -3.2160 O   0  0  0  0  0  0  0  0  0  0  0  0
   -1.3400   15.9120   -3.9130 C   0  0  2  0  0  0  0  0  0  0  0  0
   -1.0920   14.4740   -4.2960 C   0  0  1  0  0  0  0  0  0  0  0  0
   -0.2970   16.9090   -4.4200 C   0  0  0  0  0  0  0  0  0  0  0  0
    0.2400   13.9510   -4.0970 O   0  0  0  0  0  0  0  0  0  0  0  0
   -0.5340   17.2290   -5.7840 O   0  0  0  0  0  0  0  0  0  0  0  0
   -1.6850   18.2760   -6.1060 P   0  0  1  0  0  0  0  0  0  0  0  0
   -2.8060   17.7830   -6.9440 O   0  0  0  0  0  0  0  0  0  0  0  0
   -2.0990   18.7690   -4.6590 O   0  0  0  0  0  0  0  0  0  0  0  0
   -0.9670   19.5860   -6.5700 O   0  0  0  0  0  0  0  0  0  0  0  0
   -0.1570   19.8880   -7.8810 P   0  0  1  0  0  0  0  0  0  0  0  0
    1.0610   20.7270   -7.6500 O   0  0  0  0  0  0  0  0  0  0  0  0
    0.0600   18.5300   -8.7090 O   0  0  0  0  0  0  0  0  0  0  0  0
   -1.2760   20.6140   -8.7390 O   0  0  0  0  0  0  0  0  0  0  0  0
   -1.8950   21.7540   -8.1660 C   0  0  0  0  0  0  0  0  0  0  0  0
   -3.2980   21.8750   -8.7430 C   0  0  2  0  0  0  0  0  0  0  0  0
   -3.8190   23.2890   -8.8660 C   0  0  1  0  0  0  0  0  0  0  0  0
   -4.1890   21.1730   -7.8580 O   0  0  0  0  0  0  0  0  0  0  0  0
   -4.3900   23.5890  -10.1320 O   0  0  0  0  0  0  0  0  0  0  0  0
   -5.3440   21.9630   -7.6090 C   0  0  2  0  0  0  0  0  0  0  0  0
   -4.8750   23.3970   -7.7810 C   0  0  2  0  0  0  0  0  0  0  0  0
   -5.8350   21.7080   -6.2900 O   0  0  0  0  0  0  0  0  0  0  0  0
   -5.9050   24.2380   -8.2570 O   0  0  0  0  0  0  0  0  0  0  0  0
  2  1  1  1
  2  3  1  0
  2  4  1  0
  2  5  1  0
  4  6  1  1
  5  7  1  0
  3  8  1  0
  4  9  1  0
  5 10  1  1
  8 11  2  0
  7 12  1  1
  8 12  1  0
  7 13  1  0
  7 14  1  0
  9 15  1  0
 10 15  1  0
 14 16  1  1
 13 17  1  0
 14 18  1  0
 17 18  1  0
 17 19  1  1
 18 20  1  1
 19 21  1  0
 21 22  1  0
 22 23  2  0
 22 24  1  1
 22 25  1  0
 25 26  1  0
 26 27  2  0
 26 28  1  6
 26 29  1  0
 29 30  1  0
 31 30  1  1
 31 32  1  0
 31 33  1  0
 32 34  1  6
 33 35  1  0
 32 36  1  0
 35 36  1  0
 35 37  1  1
 36 38  1  6
M  END
>  <%Rank>  (163) 
64.285714

>  <N_hits>  (163) 
2

>  <submitter_name>  (163) 
nan

>  <original SMILES>  (163) 
nan

>  <∆G_unbound>  (163) 
5.597809

>  <∆G_bound>  (163) 
-9.668296

>  <regarded>  (163) 
mArh-x0895_1_A,mArh-5cb5_A_0_A

>  <ref_pdb>  (163) 
nan

>  <smiles>  (163) 
NC1NCNC2C1(O)NC(=O)NC21OC(CO[P@@](=O)(O)O[P@@](=O)(O)OCC2OC(O)C(O)C2O)C(O)C1O

>  <submitter_email>  (163) 
nan

>  <disregarded>  (163) 


>  <LE>  (163) 
-0.40174

>  <submitter_institution>  (163) 
nan

>  <ref_mols>  (163) 
mArh-x0895_1_A,mArh-5cb5_A_0_A

>  <N_constrained_atoms>  (163) 
38.0

>  <ref_url>  (163) 
nan

>  <method>  (163) 
nan

>  <comRMSD>  (163) 
1.006839

>  <N_unconstrained_atoms>  (163) 
0.0

>  <∆∆G>  (163) 
-15.266105

>  <runtime>  (163) 
38.817183

>  <generation_date>  (163) 
nan

$$$$
mArh-3ew5_B_0_B-mArh-x0918_1_B
     RDKit          3D

 22 22  0  0  0  0  0  0  0  0999 V2000
   -0.3280   19.8920   -7.8550 P   0  0  0  0  0  0  0  0  0  0  0  0
   -1.5470   20.9060   -8.1750 O   0  0  0  0  0  0  0  0  0  0  0  0
   -2.6300   20.9980   -7.2380 C   0  0  0  0  0  0  0  0  0  0  0  0
    0.0310   18.8490   -8.8430 O   0  0  0  0  0  0  0  0  0  0  0  0
   -0.7300   19.3050   -6.4380 O   0  0  0  0  0  0  0  0  0  0  0  0
    0.9130   20.8470   -7.4970 O   0  0  0  0  0  0  0  0  0  0  0  0
   -3.8080   21.9710   -7.5810 C   0  0  2  0  0  0  0  0  0  0  0  0
   -4.9200   21.9200   -6.5150 C   0  0  0  0  0  0  0  0  0  0  0  0
   -4.5410   21.6380   -8.7840 O   0  0  0  0  0  0  0  0  0  0  0  0
   -5.3060   23.2380   -6.1210 O   0  0  0  0  0  0  0  0  0  0  0  0
   -4.3640   22.4850   -9.9160 C   0  0  0  0  0  0  0  0  0  0  0  0
   -5.6930   22.8840  -10.5880 C   0  0  0  0  0  0  0  0  0  0  0  0
   -5.9540   24.3930  -10.4280 C   0  0  0  0  0  0  0  0  0  0  0  0
   -6.1250   25.2840  -11.6930 C   0  0  0  0  0  0  0  0  0  0  0  0
   -5.6660   26.7230  -11.3790 C   0  0  0  0  0  0  0  0  0  0  0  0
   -5.7050   27.8700  -12.3690 C   0  0  0  0  0  0  0  0  0  0  0  0
   -6.9050   28.4340  -12.6160 N   0  0  0  0  0  0  0  0  0  0  0  0
   -4.5250   28.3110  -12.9770 C   0  0  0  0  0  0  0  0  0  0  0  0
   -4.5770   29.3690  -13.8830 C   0  0  0  0  0  0  0  0  0  0  0  0
   -6.9310   29.4530  -13.4930 C   0  0  0  0  0  0  0  0  0  0  0  0
   -3.4200   29.8360  -14.5130 N   0  0  0  0  0  0  0  0  0  0  0  0
   -5.8110   29.9450  -14.1430 C   0  0  0  0  0  0  0  0  0  0  0  0
  1  2  1  0
  2  3  1  0
  1  4  2  0
  1  5  1  0
  1  6  1  0
  7  3  1  1
  7  8  1  0
  7  9  1  0
  8 10  1  0
  9 11  1  0
 11 12  1  0
 12 13  1  0
 13 14  1  0
 14 15  1  0
 15 16  1  0
 16 17  2  0
 16 18  1  0
 18 19  2  0
 17 20  1  0
 19 21  1  0
 19 22  1  0
 20 22  2  0
M  END
>  <%Rank>  (164) 
64.68254

>  <N_hits>  (164) 
2

>  <submitter_name>  (164) 
nan

>  <original SMILES>  (164) 
nan

>  <∆G_unbound>  (164) 
2.488641

>  <∆G_bound>  (164) 
-11.458941

>  <regarded>  (164) 
mArh-3ew5_B_0_B,mArh-x0918_1_B

>  <ref_pdb>  (164) 
nan

>  <smiles>  (164) 
Nc1ccnc(CCCCCO[C@@H](CO)COP(=O)(O)O)c1

>  <submitter_email>  (164) 
nan

>  <disregarded>  (164) 


>  <LE>  (164) 
-0.633981

>  <submitter_institution>  (164) 
nan

>  <ref_mols>  (164) 
mArh-3ew5_B_0_B,mArh-x0918_1_B

>  <N_constrained_atoms>  (164) 
17.0

>  <ref_url>  (164) 
nan

>  <method>  (164) 
nan

>  <comRMSD>  (164) 
0.683141

>  <N_unconstrained_atoms>  (164) 
5.0

>  <∆∆G>  (164) 
-13.947583

>  <runtime>  (164) 
29.768402

>  <generation_date>  (164) 
nan

$$$$
mArh-x0926_0_A-mArh-5cb3_0_A
     RDKit          3D

 38 41  0  0  0  0  0  0  0  0999 V2000
   -5.9670   15.8350   -1.0370 O   0  0  0  0  0  0  0  0  0  0  0  0
   -4.9280   15.2050   -1.2090 C   0  0  0  0  0  0  0  0  0  0  0  0
   -4.7610   13.9310   -0.5130 C   0  0  0  0  0  0  0  0  0  0  0  0
   -3.8680   15.5840   -2.0480 N   0  0  0  0  0  0  0  0  0  0  0  0
   -2.4650   15.0350   -2.0020 C   0  0  2  0  0  0  0  0  0  0  0  0
   -3.5420   13.5350   -0.2160 C   0  0  0  0  0  0  0  0  0  0  0  0
   -2.3570   14.4160   -0.5570 C   0  0  2  0  0  0  0  0  0  0  0  0
   -1.4900   16.1260   -2.2610 O   0  0  0  0  0  0  0  0  0  0  0  0
   -2.1460   14.0680   -3.2830 C   0  0  2  0  0  0  0  0  0  0  0  0
   -1.9660   12.6680   -3.0250 O   0  0  0  0  0  0  0  0  0  0  0  0
   -0.4540   15.7590   -3.2470 C   0  0  1  0  0  0  0  0  0  0  0  0
   -0.9950   14.5390   -3.9370 C   0  0  1  0  0  0  0  0  0  0  0  0
   -2.5330   15.1890    0.7880 C   0  0  2  0  0  0  0  0  0  0  0  0
   -0.9940   13.6930   -0.3740 C   0  0  0  0  0  0  0  0  0  0  0  0
   -0.0610   16.9020   -4.1950 C   0  0  0  0  0  0  0  0  0  0  0  0
    0.0190   13.5150   -4.0650 O   0  0  0  0  0  0  0  0  0  0  0  0
   -3.4340   16.3030    0.9140 N   0  0  0  0  0  0  0  0  0  0  0  0
   -1.2800   15.4210    1.4180 N   0  0  0  0  0  0  0  0  0  0  0  0
    0.1400   14.6170   -0.2470 N   0  0  0  0  0  0  0  0  0  0  0  0
   -0.7380   16.7870   -5.4450 O   0  0  0  0  0  0  0  0  0  0  0  0
   -0.2170   15.7430    0.5200 C   0  0  0  0  0  0  0  0  0  0  0  0
   -1.4880   18.0740   -6.0030 P   0  0  1  0  0  0  0  0  0  0  0  0
   -2.5540   17.7620   -6.9490 O   0  0  0  0  0  0  0  0  0  0  0  0
   -1.9390   18.7530   -4.6570 O   0  0  0  0  0  0  0  0  0  0  0  0
   -0.3350   19.0090   -6.4970 O   0  0  0  0  0  0  0  0  0  0  0  0
   -0.1990   19.7900   -7.8470 P   0  0  1  0  0  0  0  0  0  0  0  0
    0.8710   20.9730   -7.8630 O   0  0  0  0  0  0  0  0  0  0  0  0
    0.0360   18.6850   -8.8260 O   0  0  0  0  0  0  0  0  0  0  0  0
   -1.6750   20.2260   -8.2490 O   0  0  0  0  0  0  0  0  0  0  0  0
   -2.0550   21.5870   -8.1000 C   0  0  0  0  0  0  0  0  0  0  0  0
   -3.4370   21.8970   -8.6930 C   0  0  2  0  0  0  0  0  0  0  0  0
   -3.8500   23.3380   -8.3860 C   0  0  1  0  0  0  0  0  0  0  0  0
   -4.4420   21.0400   -8.0870 O   0  0  0  0  0  0  0  0  0  0  0  0
   -4.7050   23.9120   -9.3610 O   0  0  0  0  0  0  0  0  0  0  0  0
   -5.2830   21.8590   -7.2650 C   0  0  2  0  0  0  0  0  0  0  0  0
   -4.5270   23.1610   -7.0400 C   0  0  2  0  0  0  0  0  0  0  0  0
   -5.4920   21.2820   -5.9870 O   0  0  0  0  0  0  0  0  0  0  0  0
   -5.4720   24.2140   -6.7750 O   0  0  0  0  0  0  0  0  0  0  0  0
  1  2  2  0
  2  3  1  0
  2  4  1  0
  5  4  1  6
  3  6  2  0
  5  7  1  0
  7  6  1  6
  5  8  1  0
  5  9  1  0
  9 10  1  1
  8 11  1  0
  9 12  1  0
 11 12  1  0
  7 13  1  0
  7 14  1  0
 11 15  1  6
 12 16  1  1
 13 17  1  6
 13 18  1  0
 14 19  1  0
 15 20  1  0
 18 21  1  0
 19 21  1  0
 20 22  1  0
 22 23  2  0
 22 24  1  1
 22 25  1  0
 25 26  1  0
 26 27  2  0
 26 28  1  6
 26 29  1  0
 29 30  1  0
 31 30  1  1
 31 32  1  0
 31 33  1  0
 32 34  1  6
 33 35  1  0
 32 36  1  0
 35 36  1  0
 35 37  1  1
 36 38  1  6
M  END
>  <%Rank>  (165) 
65.079365

>  <N_hits>  (165) 
2

>  <submitter_name>  (165) 
nan

>  <original SMILES>  (165) 
nan

>  <∆G_unbound>  (165) 
7.66385

>  <∆G_bound>  (165) 
-12.497007

>  <regarded>  (165) 
mArh-x0926_0_A,mArh-5cb3_0_A

>  <ref_pdb>  (165) 
nan

>  <smiles>  (165) 
NC1NCNCC12C=CC(=O)NC21OC(CO[P@@](=O)(O)O[P@@](=O)(O)OCC2OC(O)C(O)C2O)C(O)C1O

>  <submitter_email>  (165) 
nan

>  <disregarded>  (165) 


>  <LE>  (165) 
-0.530549

>  <submitter_institution>  (165) 
nan

>  <ref_mols>  (165) 
mArh-x0926_0_A,mArh-5cb3_0_A

>  <N_constrained_atoms>  (165) 
38.0

>  <ref_url>  (165) 
nan

>  <method>  (165) 
nan

>  <comRMSD>  (165) 
1.092081

>  <N_unconstrained_atoms>  (165) 
0.0

>  <∆∆G>  (165) 
-20.160857

>  <runtime>  (165) 
25.241038

>  <generation_date>  (165) 
nan

$$$$
mArh-5cms_H_7_H-mArh-x0465_0_A
     RDKit          3D

 48 52  0  0  0  0  0  0  0  0999 V2000
   -2.0160   17.7080   -6.0470 P   0  0  1  0  0  0  0  0  0  0  0  0
   -0.6120   16.9410   -5.9050 O   0  0  0  0  0  0  0  0  0  0  0  0
    0.3040   17.1980   -4.8440 C   0  0  0  0  0  0  0  0  0  0  0  0
   -3.1910   16.7960   -6.1340 O   0  0  0  0  0  0  0  0  0  0  0  0
   -2.0410   18.7480   -4.8260 O   0  0  0  0  0  0  0  0  0  0  0  0
   -1.8020   18.5990   -7.3100 O   0  0  0  0  0  0  0  0  0  0  0  0
   -0.4080   19.2740   -7.6160 P   0  0  1  0  0  0  0  0  0  0  0  0
    0.6320   19.2490   -6.5660 O   0  0  0  0  0  0  0  0  0  0  0  0
    0.0930   18.4790   -8.8940 O   0  0  0  0  0  0  0  0  0  0  0  0
   -0.7550   20.7080   -8.2090 O   0  0  0  0  0  0  0  0  0  0  0  0
    0.8310   15.8600   -4.3000 C   0  0  1  0  0  0  0  0  0  0  0  0
   -2.0500   21.2460   -7.9500 C   0  0  0  0  0  0  0  0  0  0  0  0
    0.3930   15.7260   -2.9460 O   0  0  0  0  0  0  0  0  0  0  0  0
    0.2280   14.6370   -5.0070 C   0  0  1  0  0  0  0  0  0  0  0  0
    1.1000   13.5240   -4.8890 O   0  0  0  0  0  0  0  0  0  0  0  0
   -1.1420   14.4850   -4.2930 C   0  0  2  0  0  0  0  0  0  0  0  0
   -0.9960   15.5170   -3.1750 C   0  0  1  0  0  0  0  0  0  0  0  0
   -2.3730   22.0330   -9.1820 C   0  0  2  0  0  0  0  0  0  0  0  0
   -1.4060   13.1740   -3.8030 O   0  0  0  0  0  0  0  0  0  0  0  0
    0.4160   12.3590   -4.4980 C   0  0  1  0  0  0  0  0  0  0  0  0
   -2.5380   23.5060   -8.9500 C   0  0  1  0  0  0  0  0  0  0  0  0
   -3.5470   21.5820   -9.8870 O   0  0  0  0  0  0  0  0  0  0  0  0
   -1.8080   15.4400   -1.9880 N   0  0  0  0  0  0  0  0  0  0  0  0
   -1.2910   24.1800   -8.9200 O   0  0  0  0  0  0  0  0  0  0  0  0
    0.6110   11.2720   -5.4080 O   0  0  0  0  0  0  0  0  0  0  0  0
    0.7930   11.8780   -3.0760 C   0  0  0  0  0  0  0  0  0  0  0  0
   -4.0320   22.6450  -10.6780 C   0  0  2  0  0  0  0  0  0  0  0  0
   -3.5550   23.9230  -10.0530 C   0  0  2  0  0  0  0  0  0  0  0  0
   -1.4910   15.2100   -0.6750 C   0  0  0  0  0  0  0  0  0  0  0  0
   -3.1560   15.6330   -2.0580 C   0  0  0  0  0  0  0  0  0  0  0  0
   -5.4340   22.7260  -10.6180 O   0  0  0  0  0  0  0  0  0  0  0  0
   -3.1860   24.8910  -11.0470 O   0  0  0  0  0  0  0  0  0  0  0  0
    1.4310   12.5100   -2.2480 O   0  0  0  0  0  0  0  0  0  0  0  0
    0.3620   10.6380   -2.7430 O   0  0  0  0  0  0  0  0  0  0  0  0
   -2.7140   15.3070   -0.0230 C   0  0  0  0  0  0  0  0  0  0  0  0
   -0.3040   14.9550   -0.1050 N   0  0  0  0  0  0  0  0  0  0  0  0
   -3.7380   15.5620   -0.8970 N   0  0  0  0  0  0  0  0  0  0  0  0
   -0.5630   10.6040   -5.6400 C   0  0  0  0  0  0  0  0  0  0  0  0
   -2.7230   15.1480    1.3500 C   0  0  0  0  0  0  0  0  0  0  0  0
   -0.4420   14.7980    1.2180 C   0  0  0  0  0  0  0  0  0  0  0  0
   -0.6320    9.6760   -6.6820 C   0  0  0  0  0  0  0  0  0  0  0  0
   -1.6880   10.8370   -4.8490 C   0  0  0  0  0  0  0  0  0  0  0  0
   -3.8900   15.2740    2.0870 N   0  0  0  0  0  0  0  0  0  0  0  0
    0.4340    9.4330   -7.4570 F   0  0  0  0  0  0  0  0  0  0  0  0
   -1.5630   14.8760    1.9650 N   0  0  0  0  0  0  0  0  0  0  0  0
   -1.8100    8.9830   -6.9360 C   0  0  0  0  0  0  0  0  0  0  0  0
   -2.8690   10.1450   -5.1070 C   0  0  0  0  0  0  0  0  0  0  0  0
   -2.9310    9.2190   -6.1470 C   0  0  0  0  0  0  0  0  0  0  0  0
  1  2  1  0
  2  3  1  0
  1  4  2  0
  1  5  1  1
  1  6  1  0
  6  7  1  0
  7  8  2  0
  7  9  1  6
  7 10  1  0
 11  3  1  6
 10 12  1  0
 11 13  1  0
 11 14  1  0
 14 15  1  1
 14 16  1  0
 13 17  1  0
 16 17  1  0
 18 12  1  1
 16 19  1  1
 20 15  1  6
 18 21  1  0
 18 22  1  0
 17 23  1  1
 21 24  1  6
 20 25  1  0
 20 26  1  0
 22 27  1  0
 21 28  1  0
 27 28  1  0
 23 29  1  0
 23 30  1  0
 27 31  1  1
 28 32  1  6
 26 33  2  0
 26 34  1  0
 29 35  2  0
 29 36  1  0
 30 37  2  0
 35 37  1  0
 25 38  1  0
 35 39  1  0
 36 40  2  0
 38 41  2  0
 38 42  1  0
 39 43  1  0
 41 44  1  0
 39 45  2  0
 40 45  1  0
 41 46  1  0
 42 47  2  0
 46 48  2  0
 47 48  1  0
M  END
>  <%Rank>  (166) 
65.47619

>  <N_hits>  (166) 
2

>  <submitter_name>  (166) 
nan

>  <original SMILES>  (166) 
nan

>  <∆G_unbound>  (166) 
4.079529

>  <∆G_bound>  (166) 
-2.604616

>  <regarded>  (166) 
mArh-5cms_H_7_H,mArh-x0465_0_A

>  <ref_pdb>  (166) 
nan

>  <smiles>  (166) 
Nc1ncnc2c1ncn2C1OC(CO[P@@](=O)(O)O[P@@](=O)(O)OCC2OC(O)C(O)C2O)C(O[C@@H](Oc2ccccc2F)C(=O)O)C1O

>  <submitter_email>  (166) 
nan

>  <disregarded>  (166) 


>  <LE>  (166) 
-0.139253

>  <submitter_institution>  (166) 
nan

>  <ref_mols>  (166) 
mArh-5cms_H_7_H,mArh-x0465_0_A

>  <N_constrained_atoms>  (166) 
48.0

>  <ref_url>  (166) 
nan

>  <method>  (166) 
nan

>  <comRMSD>  (166) 
0.973857

>  <N_unconstrained_atoms>  (166) 
0.0

>  <∆∆G>  (166) 
-6.684144

>  <runtime>  (166) 
60.709295

>  <generation_date>  (166) 
nan

$$$$
mArh-1spv_0_A-mArh-5cms_N_13_N
     RDKit          3D

 42 46  0  0  0  0  0  0  0  0999 V2000
    0.6940   20.6690   -7.6440 O   0  0  0  0  0  0  0  0  0  0  0  0
   -0.5340   19.9520   -7.9170 S   0  0  0  0  0  0  0  0  0  0  0  0
   -0.4790   18.7320   -8.6900 O   0  0  0  0  0  0  0  0  0  0  0  0
   -1.3050   19.7540   -6.5320 O   0  0  0  0  0  0  0  0  0  0  0  0
   -1.6350   21.1360   -8.6670 C   0  0  0  0  0  0  0  0  0  0  0  0
   -3.0650   21.4890   -8.1840 C   0  0  1  0  0  0  0  0  0  0  0  0
   -1.5630   18.2330   -6.2380 P   0  0  2  0  0  0  0  0  0  0  0  0
   -0.1760   17.5230   -6.6170 O   0  0  0  0  0  0  0  0  0  0  0  0
   -2.7440   17.5440   -6.7570 O   0  0  0  0  0  0  0  0  0  0  0  0
   -1.5870   18.1910   -4.6360 O   0  0  0  0  0  0  0  0  0  0  0  0
   -3.2480   22.4720   -7.1700 N   0  0  0  0  0  0  0  0  0  0  0  0
   -3.9920   21.7490   -9.3110 N   0  0  0  0  0  0  0  0  0  0  0  0
    0.6530   16.9310   -5.6380 C   0  0  0  0  0  0  0  0  0  0  0  0
   -4.0040   23.6210   -7.7400 C   0  0  0  0  0  0  0  0  0  0  0  0
   -4.0630   21.9130   -6.0920 C   0  0  0  0  0  0  0  0  0  0  0  0
   -4.7390   23.0370   -9.5370 C   0  0  1  0  0  0  0  0  0  0  0  0
   -3.1990   21.7540  -10.4460 C   0  0  0  0  0  0  0  0  0  0  0  0
   -4.3020   24.0900   -8.7180 O   0  0  0  0  0  0  0  0  0  0  0  0
   -5.4490   23.3160   -8.2530 C   0  0  0  0  0  0  0  0  0  0  0  0
   -5.4980   22.3750   -6.1720 C   0  0  0  0  0  0  0  0  0  0  0  0
   -0.0150   15.7420   -4.9520 C   0  0  2  0  0  0  0  0  0  0  0  0
   -4.3720   23.5870  -10.9440 C   0  0  1  0  0  0  0  0  0  0  0  0
   -4.0790   22.2900  -11.5640 C   0  0  1  0  0  0  0  0  0  0  0  0
   -5.3860   24.2330  -11.7160 O   0  0  0  0  0  0  0  0  0  0  0  0
   -3.5550   22.3160  -12.8800 O   0  0  0  0  0  0  0  0  0  0  0  0
   -6.0600   22.3220   -7.4650 O   0  0  0  0  0  0  0  0  0  0  0  0
    0.5330   15.6930   -3.6410 O   0  0  0  0  0  0  0  0  0  0  0  0
    0.1050   14.2930   -5.4900 C   0  0  1  0  0  0  0  0  0  0  0  0
    1.2780   13.9080   -6.1650 O   0  0  0  0  0  0  0  0  0  0  0  0
   -0.0150   13.4310   -4.2610 C   0  0  2  0  0  0  0  0  0  0  0  0
    0.1630   14.4100   -3.1000 C   0  0  2  0  0  0  0  0  0  0  0  0
    1.0490   12.4660   -4.2640 O   0  0  0  0  0  0  0  0  0  0  0  0
   -1.0250   14.5810   -2.2990 N   0  0  0  0  0  0  0  0  0  0  0  0
   -0.9990   14.6700   -0.9520 C   0  0  0  0  0  0  0  0  0  0  0  0
   -2.3360   14.6810   -2.7000 C   0  0  0  0  0  0  0  0  0  0  0  0
   -2.3180   14.8230   -0.5650 C   0  0  0  0  0  0  0  0  0  0  0  0
    0.0890   14.6200   -0.1860 N   0  0  0  0  0  0  0  0  0  0  0  0
   -3.1520   14.8300   -1.6690 N   0  0  0  0  0  0  0  0  0  0  0  0
   -2.5450   14.9420    0.8230 C   0  0  0  0  0  0  0  0  0  0  0  0
   -0.2540   14.7380    1.1100 C   0  0  0  0  0  0  0  0  0  0  0  0
   -3.8060   15.1160    1.3790 N   0  0  0  0  0  0  0  0  0  0  0  0
   -1.4780   14.8900    1.6480 N   0  0  0  0  0  0  0  0  0  0  0  0
  1  2  2  0
  2  3  2  0
  2  4  1  0
  2  5  1  0
  6  5  1  6
  4  7  1  0
  7  8  1  0
  7  9  2  0
  7 10  1  1
  6 11  1  0
  6 12  1  0
  8 13  1  0
 11 14  1  0
 11 15  1  0
 12 16  1  0
 12 17  1  0
 16 18  1  1
 14 19  1  0
 15 20  1  0
 21 13  1  6
 16 22  1  0
 17 23  1  0
 22 23  1  0
 22 24  1  6
 23 25  1  6
 19 26  1  0
 20 26  1  0
 21 27  1  0
 21 28  1  0
 28 29  1  1
 28 30  1  0
 27 31  1  0
 30 31  1  0
 30 32  1  6
 31 33  1  6
 33 34  1  0
 33 35  1  0
 34 36  2  0
 34 37  1  0
 35 38  2  0
 36 38  1  0
 36 39  1  0
 37 40  2  0
 39 41  1  0
 39 42  2  0
 40 42  1  0
M  END
>  <%Rank>  (167) 
65.873016

>  <N_hits>  (167) 
2

>  <submitter_name>  (167) 
nan

>  <original SMILES>  (167) 
nan

>  <∆G_unbound>  (167) 
4.974976

>  <∆G_bound>  (167) 
-2.86575

>  <regarded>  (167) 
mArh-1spv_0_A,mArh-5cms_N_13_N

>  <ref_pdb>  (167) 
nan

>  <smiles>  (167) 
Nc1ncnc2c1ncn2C1OC(CO[P@@](=O)(O)OS(=O)(=O)CC(N2CCOCC2)N2CC(O)C(O)C2O)C(O)C1O

>  <submitter_email>  (167) 
nan

>  <disregarded>  (167) 


>  <LE>  (167) 
-0.186684

>  <submitter_institution>  (167) 
nan

>  <ref_mols>  (167) 
mArh-1spv_0_A,mArh-5cms_N_13_N

>  <N_constrained_atoms>  (167) 
42.0

>  <ref_url>  (167) 
nan

>  <method>  (167) 
nan

>  <comRMSD>  (167) 
0.956045

>  <N_unconstrained_atoms>  (167) 
0.0

>  <∆∆G>  (167) 
-7.840725

>  <runtime>  (167) 
79.921892

>  <generation_date>  (167) 
nan

$$$$
mArh-x0228_0_B-mArh-5cms_M_12_M
     RDKit          3D

 53 58  0  0  0  0  0  0  0  0999 V2000
   -6.1420   26.2980  -14.0030 N   0  0  0  0  0  0  0  0  0  0  0  0
   -7.3420   25.6740  -14.3220 C   0  0  0  0  0  0  0  0  0  0  0  0
   -8.1500   26.1520  -15.3110 N   0  0  0  0  0  0  0  0  0  0  0  0
   -5.6450   25.7090  -12.8570 C   0  0  0  0  0  0  0  0  0  0  0  0
   -7.7760   24.6740  -13.7430 O   0  0  0  0  0  0  0  0  0  0  0  0
   -4.3230   25.1900  -12.6950 C   0  0  0  0  0  0  0  0  0  0  0  0
   -6.5970   25.6140  -11.8410 C   0  0  0  0  0  0  0  0  0  0  0  0
   -3.3660   25.3030  -13.7240 O   0  0  0  0  0  0  0  0  0  0  0  0
   -4.1930   24.5280  -11.4150 C   0  0  0  0  0  0  0  0  0  0  0  0
   -6.3260   25.0050  -10.6670 C   0  0  0  0  0  0  0  0  0  0  0  0
   -9.4260   25.6900  -15.3270 N   0  0  0  0  0  0  0  0  0  0  0  0
   -3.1160   26.6470  -14.1870 C   0  0  0  0  0  0  0  0  0  0  0  0
   -7.2600   24.8480   -9.5310 C   0  0  0  0  0  0  0  0  0  0  0  0
   -5.1590   24.4930  -10.5240 C   0  0  0  0  0  0  0  0  0  0  0  0
   -9.8400   24.5130  -15.8640 C   0  0  0  0  0  0  0  0  0  0  0  0
  -10.5210   26.3060  -14.8130 C   0  0  0  0  0  0  0  0  0  0  0  0
   -3.3590   23.7180  -10.5360 C   0  0  2  0  0  0  0  0  0  0  0  0
  -11.1420   24.4060  -15.6930 N   0  0  0  0  0  0  0  0  0  0  0  0
  -11.5730   25.5420  -15.0260 N   0  0  0  0  0  0  0  0  0  0  0  0
   -3.7410   22.2790  -10.7840 C   0  0  1  0  0  0  0  0  0  0  0  0
   -2.6900   23.6640   -9.1540 C   0  0  2  0  0  0  0  0  0  0  0  0
   -4.0330   22.0280  -12.1510 O   0  0  0  0  0  0  0  0  0  0  0  0
   -1.4550   24.3430   -9.0050 O   0  0  0  0  0  0  0  0  0  0  0  0
   -2.5770   22.1440   -9.0000 C   0  0  1  0  0  0  0  0  0  0  0  0
   -2.6700   21.5290  -10.2820 O   0  0  0  0  0  0  0  0  0  0  0  0
   -1.4000   21.7060   -8.2150 C   0  0  0  0  0  0  0  0  0  0  0  0
   -1.4690   20.3170   -8.0940 O   0  0  0  0  0  0  0  0  0  0  0  0
   -0.0720   19.6790   -7.7450 P   0  0  2  0  0  0  0  0  0  0  0  0
    1.0340   20.6910   -7.6530 O   0  0  0  0  0  0  0  0  0  0  0  0
    0.0860   18.5800   -8.8870 O   0  0  0  0  0  0  0  0  0  0  0  0
   -0.2730   18.7940   -6.4680 O   0  0  0  0  0  0  0  0  0  0  0  0
   -1.6460   18.1640   -6.0370 P   0  0  2  0  0  0  0  0  0  0  0  0
   -1.1760   16.8320   -5.3210 O   0  0  0  0  0  0  0  0  0  0  0  0
   -2.6490   17.9870   -7.0990 O   0  0  0  0  0  0  0  0  0  0  0  0
   -2.1770   19.1670   -4.9160 O   0  0  0  0  0  0  0  0  0  0  0  0
    0.2390   16.6930   -5.1880 C   0  0  0  0  0  0  0  0  0  0  0  0
    0.6560   15.3790   -4.5520 C   0  0  1  0  0  0  0  0  0  0  0  0
    0.1830   15.3680   -3.2040 O   0  0  0  0  0  0  0  0  0  0  0  0
    0.2610   14.0450   -5.2170 C   0  0  1  0  0  0  0  0  0  0  0  0
    1.3180   13.0860   -5.3050 O   0  0  0  0  0  0  0  0  0  0  0  0
   -0.7600   13.4170   -4.2690 C   0  0  1  0  0  0  0  0  0  0  0  0
   -0.5380   14.1570   -2.9410 C   0  0  2  0  0  0  0  0  0  0  0  0
   -2.0710   13.3400   -4.7860 O   0  0  0  0  0  0  0  0  0  0  0  0
   -1.6310   14.4830   -2.0500 N   0  0  0  0  0  0  0  0  0  0  0  0
   -1.4900   14.6070   -0.7230 C   0  0  0  0  0  0  0  0  0  0  0  0
   -2.9570   14.7300   -2.3550 C   0  0  0  0  0  0  0  0  0  0  0  0
   -2.7410   14.9370   -0.2360 C   0  0  0  0  0  0  0  0  0  0  0  0
   -0.3540   14.4440   -0.0440 N   0  0  0  0  0  0  0  0  0  0  0  0
   -3.6580   15.0100   -1.2660 N   0  0  0  0  0  0  0  0  0  0  0  0
   -2.8210   15.1290    1.1520 C   0  0  0  0  0  0  0  0  0  0  0  0
   -0.5470   14.6390    1.2560 C   0  0  0  0  0  0  0  0  0  0  0  0
   -3.9910   15.4820    1.8110 N   0  0  0  0  0  0  0  0  0  0  0  0
   -1.6960   14.9670    1.8780 N   0  0  0  0  0  0  0  0  0  0  0  0
  1  2  1  0
  2  3  1  0
  1  4  1  0
  2  5  2  0
  4  6  2  0
  4  7  1  0
  6  8  1  0
  6  9  1  0
  7 10  2  0
  3 11  1  0
  8 12  1  0
 10 13  1  0
  9 14  2  0
 10 14  1  0
 11 15  1  0
 11 16  1  0
 17  9  1  1
 15 18  2  0
 16 19  2  0
 18 19  1  0
 17 20  1  0
 17 21  1  0
 20 22  1  6
 21 23  1  6
 21 24  1  0
 20 25  1  0
 24 25  1  0
 24 26  1  6
 26 27  1  0
 27 28  1  0
 28 29  2  0
 28 30  1  6
 28 31  1  0
 31 32  1  0
 32 33  1  0
 32 34  2  0
 32 35  1  1
 33 36  1  0
 37 36  1  6
 37 38  1  0
 37 39  1  0
 39 40  1  1
 39 41  1  0
 38 42  1  0
 41 42  1  0
 41 43  1  6
 42 44  1  6
 44 45  1  0
 44 46  1  0
 45 47  2  0
 45 48  1  0
 46 49  2  0
 47 49  1  0
 47 50  1  0
 48 51  2  0
 50 52  1  0
 50 53  2  0
 51 53  1  0
M  END
>  <%Rank>  (168) 
66.269841

>  <N_hits>  (168) 
2

>  <submitter_name>  (168) 
nan

>  <original SMILES>  (168) 
nan

>  <∆G_unbound>  (168) 
7.471847

>  <∆G_bound>  (168) 
-12.470509

>  <regarded>  (168) 
mArh-x0228_0_B,mArh-5cms_M_12_M

>  <ref_pdb>  (168) 
nan

>  <smiles>  (168) 
COc1c(NC(=O)Nn2cnnc2)cc(C)cc1C1C(O)OC(CO[P@](=O)(O)O[P@](=O)(O)OCC2OC(n3cnc4c(N)ncnc43)C(O)C2O)C1O

>  <submitter_email>  (168) 
nan

>  <disregarded>  (168) 


>  <LE>  (168) 
-0.376271

>  <submitter_institution>  (168) 
nan

>  <ref_mols>  (168) 
mArh-x0228_0_B,mArh-5cms_M_12_M

>  <N_constrained_atoms>  (168) 
53.0

>  <ref_url>  (168) 
nan

>  <method>  (168) 
nan

>  <comRMSD>  (168) 
1.12537

>  <N_unconstrained_atoms>  (168) 
0.0

>  <∆∆G>  (168) 
-19.942356

>  <runtime>  (168) 
67.996815

>  <generation_date>  (168) 
nan

$$$$
mArh-x0905_0_A-mArh-mac-194_0_A
     RDKit          3D

 11 12  0  0  0  0  0  0  0  0999 V2000
   -7.9270   14.4930    2.8380 N   0  0  0  0  0  0  0  0  0  0  0  0
   -7.1170   14.6610    1.7600 C   0  0  0  0  0  0  0  0  0  0  0  0
   -5.8430   14.8380    1.9050 N   0  0  0  0  0  0  0  0  0  0  0  0
   -7.7870   14.6330    0.5570 N   0  0  0  0  0  0  0  0  0  0  0  0
   -5.1290   15.0140    0.7370 N   0  0  0  0  0  0  0  0  0  0  0  0
   -7.0810   14.8770   -0.6050 C   0  0  0  0  0  0  0  0  0  0  0  0
   -3.7570   14.9120    0.8110 C   0  0  0  0  0  0  0  0  0  0  0  0
   -5.7550   15.0670   -0.5270 C   0  0  0  0  0  0  0  0  0  0  0  0
   -2.9670   15.0390   -0.2550 C   0  0  0  0  0  0  0  0  0  0  0  0
   -4.9120   15.3210   -1.6820 C   0  0  0  0  0  0  0  0  0  0  0  0
   -3.5740   15.3030   -1.5460 C   0  0  0  0  0  0  0  0  0  0  0  0
  1  2  1  0
  2  3  2  0
  2  4  1  0
  3  5  1  0
  4  6  1  0
  5  7  1  0
  5  8  1  0
  6  8  2  0
  7  9  2  0
  8 10  1  0
  9 11  1  0
 10 11  2  0
M  END
>  <%Rank>  (169) 
66.666667

>  <N_hits>  (169) 
2

>  <submitter_name>  (169) 
nan

>  <original SMILES>  (169) 
nan

>  <∆G_unbound>  (169) 
0.064622

>  <∆G_bound>  (169) 
-1.916637

>  <regarded>  (169) 
mArh-x0905_0_A,mArh-mac-194_0_A

>  <ref_pdb>  (169) 
nan

>  <smiles>  (169) 
NC1=NN2C=CC=CC2=CN1

>  <submitter_email>  (169) 
nan

>  <disregarded>  (169) 


>  <LE>  (169) 
-0.180115

>  <submitter_institution>  (169) 
nan

>  <ref_mols>  (169) 
mArh-x0905_0_A,mArh-mac-194_0_A

>  <N_constrained_atoms>  (169) 
11.0

>  <ref_url>  (169) 
nan

>  <method>  (169) 
nan

>  <comRMSD>  (169) 
0.471533

>  <N_unconstrained_atoms>  (169) 
0.0

>  <∆∆G>  (169) 
-1.98126

>  <runtime>  (169) 
25.552862

>  <generation_date>  (169) 
nan

$$$$
mArh-5cms_R_17_R-mArh-x0766_0_A
     RDKit          3D

 38 41  0  0  0  0  0  0  0  0999 V2000
   -1.6950   17.9740   -6.0990 P   0  0  1  0  0  0  0  0  0  0  0  0
   -0.2870   17.3050   -6.4630 O   0  0  0  0  0  0  0  0  0  0  0  0
    0.6440   16.7990   -5.5340 C   0  0  0  0  0  0  0  0  0  0  0  0
   -2.8380   17.2970   -6.7320 O   0  0  0  0  0  0  0  0  0  0  0  0
   -1.7230   18.1310   -4.5300 O   0  0  0  0  0  0  0  0  0  0  0  0
   -1.3060   19.3440   -6.6710 O   0  0  0  0  0  0  0  0  0  0  0  0
   -0.0760   19.5430   -7.6200 P   0  0  1  0  0  0  0  0  0  0  0  0
    1.2700   19.7010   -7.0420 O   0  0  0  0  0  0  0  0  0  0  0  0
   -0.1140   18.3700   -8.7040 O   0  0  0  0  0  0  0  0  0  0  0  0
   -0.5630   20.6790   -8.5120 O   0  0  0  0  0  0  0  0  0  0  0  0
    0.0050   15.6560   -4.7730 C   0  0  2  0  0  0  0  0  0  0  0  0
   -1.7140   21.2670   -8.0340 C   0  0  0  0  0  0  0  0  0  0  0  0
    0.4310   15.8710   -3.4160 O   0  0  0  0  0  0  0  0  0  0  0  0
    0.3390   14.1680   -5.0830 C   0  0  1  0  0  0  0  0  0  0  0  0
    1.4010   13.9380   -5.9810 O   0  0  0  0  0  0  0  0  0  0  0  0
    0.7290   13.5990   -3.7460 C   0  0  1  0  0  0  0  0  0  0  0  0
    0.3480   14.6310   -2.7190 C   0  0  2  0  0  0  0  0  0  0  0  0
   -2.0440   22.1930   -9.0960 C   0  0  2  0  0  0  0  0  0  0  0  0
    0.3750   12.2150   -3.3220 C   0  0  0  0  0  0  0  0  0  0  0  0
   -2.5240   23.5480   -8.7120 C   0  0  1  0  0  0  0  0  0  0  0  0
   -2.9570   21.6170  -10.0380 O   0  0  0  0  0  0  0  0  0  0  0  0
   -0.9320   14.7140   -2.0690 N   0  0  0  0  0  0  0  0  0  0  0  0
   -1.5290   24.5010   -8.8790 O   0  0  0  0  0  0  0  0  0  0  0  0
    0.7670   11.7140   -2.2860 O   0  0  0  0  0  0  0  0  0  0  0  0
   -0.4190   11.5030   -4.1290 O   0  0  0  0  0  0  0  0  0  0  0  0
   -4.1690   22.3030   -9.8170 C   0  0  2  0  0  0  0  0  0  0  0  0
   -3.7940   23.7300   -9.5480 C   0  0  2  0  0  0  0  0  0  0  0  0
   -0.9970   14.6950   -0.6500 C   0  0  0  0  0  0  0  0  0  0  0  0
   -2.2480   14.8310   -2.5110 C   0  0  0  0  0  0  0  0  0  0  0  0
   -4.7760   21.7910   -8.6520 O   0  0  0  0  0  0  0  0  0  0  0  0
   -3.7000   24.4810  -10.7620 O   0  0  0  0  0  0  0  0  0  0  0  0
   -2.4420   14.8310   -0.3130 C   0  0  0  0  0  0  0  0  0  0  0  0
    0.0320   14.5860    0.1680 N   0  0  0  0  0  0  0  0  0  0  0  0
   -3.1560   14.9060   -1.5040 N   0  0  0  0  0  0  0  0  0  0  0  0
   -2.7190   14.8570    1.0580 C   0  0  0  0  0  0  0  0  0  0  0  0
   -0.3980   14.6030    1.4300 C   0  0  0  0  0  0  0  0  0  0  0  0
   -3.9890   15.0090    1.5880 N   0  0  0  0  0  0  0  0  0  0  0  0
   -1.6660   14.7280    1.9020 N   0  0  0  0  0  0  0  0  0  0  0  0
  1  2  1  0
  2  3  1  0
  1  4  2  0
  1  5  1  1
  1  6  1  0
  6  7  1  0
  7  8  2  0
  7  9  1  6
  7 10  1  0
 11  3  1  6
 10 12  1  0
 11 13  1  0
 11 14  1  0
 14 15  1  6
 14 16  1  0
 13 17  1  0
 16 17  1  0
 18 12  1  1
 16 19  1  1
 18 20  1  0
 18 21  1  0
 17 22  1  6
 20 23  1  6
 19 24  2  0
 19 25  1  0
 21 26  1  0
 20 27  1  0
 26 27  1  0
 22 28  1  0
 22 29  1  0
 26 30  1  1
 27 31  1  6
 28 32  2  0
 28 33  1  0
 29 34  2  0
 32 34  1  0
 32 35  1  0
 33 36  2  0
 35 37  1  0
 35 38  2  0
 36 38  1  0
M  END
>  <%Rank>  (170) 
67.063492

>  <N_hits>  (170) 
2

>  <submitter_name>  (170) 
nan

>  <original SMILES>  (170) 
nan

>  <∆G_unbound>  (170) 
4.293698

>  <∆G_bound>  (170) 
-7.89493

>  <regarded>  (170) 
mArh-5cms_R_17_R,mArh-x0766_0_A

>  <ref_pdb>  (170) 
nan

>  <smiles>  (170) 
Nc1ncnc2c1ncn2C1OC(CO[P@@](=O)(O)O[P@@](=O)(O)OCC2OC(O)C(O)C2O)C(O)C1C(=O)O

>  <submitter_email>  (170) 
nan

>  <disregarded>  (170) 


>  <LE>  (170) 
-0.320753

>  <submitter_institution>  (170) 
nan

>  <ref_mols>  (170) 
mArh-5cms_R_17_R,mArh-x0766_0_A

>  <N_constrained_atoms>  (170) 
38.0

>  <ref_url>  (170) 
nan

>  <method>  (170) 
nan

>  <comRMSD>  (170) 
0.993634

>  <N_unconstrained_atoms>  (170) 
0.0

>  <∆∆G>  (170) 
-12.188628

>  <runtime>  (170) 
45.433007

>  <generation_date>  (170) 
nan

$$$$
mArh-x0805_0_A-mArh-mac-194_0_A
     RDKit          3D

 29 32  0  0  0  0  0  0  0  0999 V2000
   -2.1300   15.9580    0.4250 C   0  0  0  0  0  0  0  0  0  0  0  0
   -2.5560   14.6110    0.2150 N   0  0  0  0  0  0  0  0  0  0  0  0
   -2.4900   14.0740   -1.0730 C   0  0  0  0  0  0  0  0  0  0  0  0
   -3.8590   14.6260    0.5470 C   0  0  0  0  0  0  0  0  0  0  0  0
   -3.6160   13.3300   -1.5300 C   0  0  0  0  0  0  0  0  0  0  0  0
   -1.4250   14.2040   -1.9490 C   0  0  0  0  0  0  0  0  0  0  0  0
   -5.2650   14.7160    0.4520 C   0  0  0  0  0  0  0  0  0  0  0  0
   -3.4940   14.8760   -0.8400 C   0  0  0  0  0  0  0  0  0  0  0  0
   -3.6690   12.7550   -2.7920 C   0  0  0  0  0  0  0  0  0  0  0  0
   -1.4680   13.6200   -3.2210 C   0  0  0  0  0  0  0  0  0  0  0  0
   -6.0540   14.9490   -0.6850 C   0  0  0  0  0  0  0  0  0  0  0  0
   -5.8810   14.5370    1.6920 N   0  0  0  0  0  0  0  0  0  0  0  0
   -4.2190   15.1270   -1.9950 C   0  0  0  0  0  0  0  0  0  0  0  0
   -2.5890   12.9030   -3.6400 C   0  0  0  0  0  0  0  0  0  0  0  0
   -0.2630   13.7810   -4.0970 C   0  0  2  0  0  0  0  0  0  0  0  0
   -7.1460   14.5830    1.8090 C   0  0  0  0  0  0  0  0  0  0  0  0
   -7.5030   14.9630   -0.5240 C   0  0  0  0  0  0  0  0  0  0  0  0
   -5.5440   15.1600   -1.9250 C   0  0  0  0  0  0  0  0  0  0  0  0
   -7.6750   14.4260    3.0400 N   0  0  0  0  0  0  0  0  0  0  0  0
   -8.2430   15.1060   -1.4860 O   0  0  0  0  0  0  0  0  0  0  0  0
    0.9070   13.2040   -3.3530 C   0  0  1  0  0  0  0  0  0  0  0  0
    0.1340   15.1870   -4.4980 C   0  0  0  0  0  0  0  0  0  0  0  0
   -7.9770   14.7910    0.7530 N   0  0  0  0  0  0  0  0  0  0  0  0
    0.5310   12.0610   -2.4610 C   0  0  0  0  0  0  0  0  0  0  0  0
    2.0620   13.0030   -4.2670 C   0  0  0  0  0  0  0  0  0  0  0  0
    1.6440   15.4290   -4.4240 C   0  0  0  0  0  0  0  0  0  0  0  0
    0.2940   10.8780   -3.0680 O   0  0  0  0  0  0  0  0  0  0  0  0
    0.4430   12.2220   -1.2600 O   0  0  0  0  0  0  0  0  0  0  0  0
    2.5200   14.2860   -4.6340 O   0  0  0  0  0  0  0  0  0  0  0  0
  1  2  1  0
  2  3  1  0
  2  4  1  0
  3  5  2  0
  3  6  1  0
  4  7  1  0
  4  8  2  0
  5  9  1  0
  6 10  2  0
  7 11  2  0
  7 12  1  0
  8 13  1  0
  9 14  2  0
 10 14  1  0
 15 10  1  1
 12 16  2  0
 11 17  1  0
 11 18  1  0
 13 18  2  0
 16 19  1  0
 17 20  2  0
 15 21  1  0
 15 22  1  0
 16 23  1  0
 17 23  1  0
 21 24  1  6
 21 25  1  0
 22 26  1  0
 24 27  1  0
 24 28  2  0
 25 29  1  0
 26 29  1  0
M  END
>  <%Rank>  (171) 
67.460317

>  <N_hits>  (171) 
2

>  <submitter_name>  (171) 
nan

>  <original SMILES>  (171) 
nan

>  <∆G_unbound>  (171) 
0.643338

>  <∆G_bound>  (171) 
-2.781495

>  <regarded>  (171) 
mArh-x0805_0_A,mArh-mac-194_0_A

>  <ref_pdb>  (171) 
nan

>  <smiles>  (171) 
CN(c1cccc(C2CCOCC2C(=O)O)c1)c1cccc2c(=O)[nH]c(N)nc12

>  <submitter_email>  (171) 
nan

>  <disregarded>  (171) 


>  <LE>  (171) 
-0.118098

>  <submitter_institution>  (171) 
nan

>  <ref_mols>  (171) 
mArh-x0805_0_A,mArh-mac-194_0_A

>  <N_constrained_atoms>  (171) 
29.0

>  <ref_url>  (171) 
nan

>  <method>  (171) 
nan

>  <comRMSD>  (171) 
0.798335

>  <N_unconstrained_atoms>  (171) 
0.0

>  <∆∆G>  (171) 
-3.424834

>  <runtime>  (171) 
35.7569

>  <generation_date>  (171) 
nan

$$$$
mArh-mac-257_0_A-mArh-mac-295_0_A
     RDKit          3D

 15 17  0  0  0  0  0  0  0  0999 V2000
   -0.8600   25.3200   14.6270 C   0  0  0  0  0  0  0  0  0  0  0  0
    0.2570   26.2030   15.1020 C   0  0  0  0  0  0  0  0  0  0  0  0
   -0.0210   27.3700   15.8260 C   0  0  0  0  0  0  0  0  0  0  0  0
    1.5900   25.8710   14.8270 C   0  0  0  0  0  0  0  0  0  0  0  0
    2.6310   26.7080   15.2680 C   0  0  0  0  0  0  0  0  0  0  0  0
    0.9940   28.2190   16.2880 C   0  0  0  0  0  0  0  0  0  0  0  0
    2.3180   27.8740   15.9990 C   0  0  0  0  0  0  0  0  0  0  0  0
    4.0480   26.6460   15.1260 C   0  0  0  0  0  0  0  0  0  0  0  0
    3.5390   28.4620   16.2790 N   0  0  0  0  0  0  0  0  0  0  0  0
    4.5490   27.7460   15.7480 C   0  0  0  0  0  0  0  0  0  0  0  0
    5.7780   28.4200   16.0310 C   0  0  0  0  0  0  0  0  0  0  0  0
    4.1420   29.5360   16.9090 C   0  0  0  0  0  0  0  0  0  0  0  0
    6.8920   28.1190   15.6340 O   0  0  0  0  0  0  0  0  0  0  0  0
    5.4380   29.5370   16.8150 N   0  0  0  0  0  0  0  0  0  0  0  0
    3.3650   30.4200   17.5460 O   0  0  0  0  0  0  0  0  0  0  0  0
  1  2  1  0
  2  3  2  0
  2  4  1  0
  4  5  2  0
  3  6  1  0
  5  7  1  0
  6  7  2  0
  5  8  1  0
  7  9  1  0
  8 10  2  0
  9 10  1  0
 10 11  1  0
  9 12  1  0
 11 13  2  0
 11 14  1  0
 12 14  2  0
 12 15  1  0
M  END
>  <%Rank>  (172) 
67.857143

>  <N_hits>  (172) 
2

>  <submitter_name>  (172) 
nan

>  <original SMILES>  (172) 
nan

>  <∆G_unbound>  (172) 
0.148165

>  <∆G_bound>  (172) 
-7.5157

>  <regarded>  (172) 
mArh-mac-257_0_A,mArh-mac-295_0_A

>  <ref_pdb>  (172) 
nan

>  <smiles>  (172) 
Cc1ccc2c(c1)cc1n2C(O)=NC1=O

>  <submitter_email>  (172) 
nan

>  <disregarded>  (172) 


>  <LE>  (172) 
-0.510924

>  <submitter_institution>  (172) 
nan

>  <ref_mols>  (172) 
mArh-mac-257_0_A,mArh-mac-295_0_A

>  <N_constrained_atoms>  (172) 
15.0

>  <ref_url>  (172) 
nan

>  <method>  (172) 
nan

>  <comRMSD>  (172) 
0.767263

>  <N_unconstrained_atoms>  (172) 
0.0

>  <∆∆G>  (172) 
-7.663864

>  <runtime>  (172) 
23.183442

>  <generation_date>  (172) 
nan

$$$$
mArh-5cms_K_10_K-mArh-6ywk_E_2_E
     RDKit          3D

 46 50  0  0  0  0  0  0  0  0999 V2000
   -1.4320   18.1770   -5.9330 P   0  0  1  0  0  0  0  0  0  0  0  0
   -0.9570   16.7660   -5.2090 O   0  0  0  0  0  0  0  0  0  0  0  0
    0.4250   16.7040   -5.1750 C   0  0  0  0  0  0  0  0  0  0  0  0
   -2.3700   17.9560   -7.0920 O   0  0  0  0  0  0  0  0  0  0  0  0
   -2.2910   19.1450   -4.8460 O   0  0  0  0  0  0  0  0  0  0  0  0
   -0.1040   19.0440   -6.3240 O   0  0  0  0  0  0  0  0  0  0  0  0
   -0.2900   19.7130   -7.9050 P   0  0  0  0  0  0  0  0  0  0  0  0
    0.8250   21.0190   -8.0610 N   0  0  0  0  0  0  0  0  0  0  0  0
    0.1000   18.4640   -8.9680 O   0  0  0  0  0  0  0  0  0  0  0  0
   -1.8960   20.2230   -8.1220 O   0  0  0  0  0  0  0  0  0  0  0  0
    0.8050   15.4500   -4.4080 C   0  0  1  0  0  0  0  0  0  0  0  0
   -2.0410   21.5790   -8.0420 C   0  0  1  0  0  0  0  0  0  0  0  0
    0.6130   22.2820   -7.7030 S   0  0  0  0  0  0  0  0  0  0  0  0
    0.2330   15.4640   -3.1650 O   0  0  0  0  0  0  0  0  0  0  0  0
    0.4040   14.1800   -5.0940 C   0  0  1  0  0  0  0  0  0  0  0  0
    1.3050   13.1450   -4.9790 O   0  0  0  0  0  0  0  0  0  0  0  0
   -0.9140   13.8840   -4.4030 C   0  0  2  0  0  0  0  0  0  0  0  0
   -0.5780   14.3750   -3.0320 C   0  0  2  0  0  0  0  0  0  0  0  0
   -2.1730   22.1850   -9.3580 C   0  0  2  0  0  0  0  0  0  0  0  0
   -3.1700   21.8990   -7.3230 N   0  0  0  0  0  0  0  0  0  0  0  0
   -1.1750   12.5140   -4.4630 O   0  0  0  0  0  0  0  0  0  0  0  0
   -2.6860   23.5710   -9.1710 C   0  0  1  0  0  0  0  0  0  0  0  0
   -2.9880   21.5870  -10.3580 O   0  0  0  0  0  0  0  0  0  0  0  0
   -1.7260   14.6400   -2.1700 N   0  0  0  0  0  0  0  0  0  0  0  0
   -3.3910   23.2830   -7.1430 C   0  0  0  0  0  0  0  0  0  0  0  0
   -4.2930   21.2290   -7.8820 C   0  0  0  0  0  0  0  0  0  0  0  0
   -1.6010   24.4140   -9.2040 O   0  0  0  0  0  0  0  0  0  0  0  0
   -4.0450   22.4220  -10.7080 C   0  0  1  0  0  0  0  0  0  0  0  0
   -3.7750   23.7990  -10.2550 C   0  0  2  0  0  0  0  0  0  0  0  0
   -1.6350   14.6560   -0.8420 C   0  0  0  0  0  0  0  0  0  0  0  0
   -3.0170   14.9050   -2.4570 C   0  0  0  0  0  0  0  0  0  0  0  0
   -4.5510   23.3060   -6.2180 C   0  0  0  0  0  0  0  0  0  0  0  0
   -5.6260   21.5730   -7.2570 C   0  0  0  0  0  0  0  0  0  0  0  0
   -4.2900   22.3900  -12.0960 O   0  0  0  0  0  0  0  0  0  0  0  0
   -3.5490   24.7620  -11.2140 O   0  0  0  0  0  0  0  0  0  0  0  0
   -2.8730   14.9250   -0.2720 C   0  0  0  0  0  0  0  0  0  0  0  0
   -0.5820   14.4590   -0.0210 N   0  0  0  0  0  0  0  0  0  0  0  0
   -3.7210   15.0810   -1.3170 N   0  0  0  0  0  0  0  0  0  0  0  0
   -5.6910   22.9360   -6.9590 N   0  0  0  0  0  0  0  0  0  0  0  0
   -5.9020   23.8620   -7.9670 C   0  0  0  0  0  0  0  0  0  0  0  0
   -3.0360   14.9860    1.0990 C   0  0  0  0  0  0  0  0  0  0  0  0
   -0.7400   14.5100    1.2990 C   0  0  0  0  0  0  0  0  0  0  0  0
   -4.3030   15.2690    1.6510 N   0  0  0  0  0  0  0  0  0  0  0  0
   -6.9910   23.8070   -8.9620 C   0  0  0  0  0  0  0  0  0  0  0  0
   -1.9470   14.7590    1.8530 N   0  0  0  0  0  0  0  0  0  0  0  0
   -7.3460   22.4950   -9.3210 O   0  0  0  0  0  0  0  0  0  0  0  0
  1  2  1  0
  2  3  1  0
  1  4  2  0
  1  5  1  1
  1  6  1  0
  6  7  1  0
  7  8  1  0
  7  9  1  0
  7 10  1  0
 11  3  1  6
 12 10  1  6
  8 13  2  0
 11 14  1  0
 11 15  1  0
 15 16  1  1
 15 17  1  0
 14 18  1  0
 17 18  1  0
 12 19  1  0
 12 20  1  0
 17 21  1  1
 19 22  1  0
 19 23  1  6
 18 24  1  6
 20 25  1  0
 20 26  1  0
 22 27  1  6
 23 28  1  0
 22 29  1  0
 28 29  1  0
 24 30  1  0
 24 31  1  0
 25 32  1  0
 26 33  1  0
 28 34  1  6
 29 35  1  6
 30 36  2  0
 30 37  1  0
 31 38  2  0
 36 38  1  0
 32 39  1  0
 33 39  1  0
 39 40  1  0
 36 41  1  0
 37 42  2  0
 41 43  1  0
 40 44  1  0
 41 45  2  0
 42 45  1  0
 44 46  1  0
M  END
>  <%Rank>  (173) 
68.253968

>  <N_hits>  (173) 
2

>  <submitter_name>  (173) 
nan

>  <original SMILES>  (173) 
nan

>  <∆G_unbound>  (173) 
5.567246

>  <∆G_bound>  (173) 
-7.743609

>  <regarded>  (173) 
mArh-5cms_K_10_K,mArh-6ywk_E_2_E

>  <ref_pdb>  (173) 
nan

>  <smiles>  (173) 
Nc1ncnc2c1ncn2C1OC(CO[P@@](=O)(O)O[PH](O)(N=S)OC(C2OC(O)C(O)C2O)N2CCN(CCO)CC2)C(O)C1O

>  <submitter_email>  (173) 
nan

>  <disregarded>  (173) 


>  <LE>  (173) 
-0.289366

>  <submitter_institution>  (173) 
nan

>  <ref_mols>  (173) 
mArh-5cms_K_10_K,mArh-6ywk_E_2_E

>  <N_constrained_atoms>  (173) 
46.0

>  <ref_url>  (173) 
nan

>  <method>  (173) 
nan

>  <comRMSD>  (173) 
1.060972

>  <N_unconstrained_atoms>  (173) 
0.0

>  <∆∆G>  (173) 
-13.310854

>  <runtime>  (173) 
55.99371

>  <generation_date>  (173) 
nan

$$$$
mArh-x0524_0_A-mArh-5cms_O_14_O
     RDKit          3D

 55 60  0  0  0  0  0  0  0  0999 V2000
   -0.2770    8.4570   -7.9370 N   0  0  0  0  0  0  0  0  0  0  0  0
   -0.9030    9.4990   -7.3040 C   0  0  0  0  0  0  0  0  0  0  0  0
   -2.2210    9.2360   -6.5990 C   0  0  0  0  0  0  0  0  0  0  0  0
    0.7240    8.4930   -8.9310 C   0  0  0  0  0  0  0  0  0  0  0  0
   -0.3220   10.6580   -7.3530 N   0  0  0  0  0  0  0  0  0  0  0  0
    1.8460    7.6740   -8.8870 C   0  0  0  0  0  0  0  0  0  0  0  0
    0.6070    9.3760  -10.0180 C   0  0  0  0  0  0  0  0  0  0  0  0
   -0.9370   11.8230   -6.7110 C   0  0  0  0  0  0  0  0  0  0  0  0
    2.8220    7.7200   -9.8820 C   0  0  0  0  0  0  0  0  0  0  0  0
    1.5890    9.4210  -11.0210 C   0  0  0  0  0  0  0  0  0  0  0  0
   -1.3270   11.5140   -5.2590 C   0  0  0  0  0  0  0  0  0  0  0  0
    2.7170    8.5870  -10.9670 C   0  0  0  0  0  0  0  0  0  0  0  0
    3.6950    8.6340  -11.9790 N   0  0  0  0  0  0  0  0  0  0  0  0
   -1.5060   12.6910   -4.4490 O   0  0  0  0  0  0  0  0  0  0  0  0
    3.9690    9.5250  -13.0350 C   0  0  0  0  0  0  0  0  0  0  0  0
   -0.2860   13.2910   -4.0570 C   0  0  1  0  0  0  0  0  0  0  0  0
    3.1870   10.6730  -13.2320 C   0  0  0  0  0  0  0  0  0  0  0  0
    5.0310    9.2880  -13.9120 C   0  0  0  0  0  0  0  0  0  0  0  0
    0.2990   14.1460   -5.1760 C   0  0  2  0  0  0  0  0  0  0  0  0
   -0.2180   14.2520   -2.8290 C   0  0  1  0  0  0  0  0  0  0  0  0
    1.6920   13.9290   -5.2930 O   0  0  0  0  0  0  0  0  0  0  0  0
    3.4690   11.5520  -14.2810 C   0  0  0  0  0  0  0  0  0  0  0  0
    5.3120   10.1630  -14.9580 C   0  0  0  0  0  0  0  0  0  0  0  0
    0.2410   15.5170   -3.3410 O   0  0  0  0  0  0  0  0  0  0  0  0
   -0.1410   15.5240   -4.7090 C   0  0  1  0  0  0  0  0  0  0  0  0
   -1.3640   14.5330   -1.9740 N   0  0  0  0  0  0  0  0  0  0  0  0
    0.3890   16.7970   -5.3380 C   0  0  0  0  0  0  0  0  0  0  0  0
    4.5300   11.2980  -15.1430 C   0  0  0  0  0  0  0  0  0  0  0  0
   -1.2780   14.5930   -0.6260 C   0  0  0  0  0  0  0  0  0  0  0  0
   -2.6760   14.7930   -2.2970 C   0  0  0  0  0  0  0  0  0  0  0  0
   -0.4700   17.8780   -5.0510 O   0  0  0  0  0  0  0  0  0  0  0  0
   -2.5500   14.8960   -0.1760 C   0  0  0  0  0  0  0  0  0  0  0  0
   -0.1770   14.3990    0.0940 N   0  0  0  0  0  0  0  0  0  0  0  0
   -3.4200   15.0170   -1.2280 N   0  0  0  0  0  0  0  0  0  0  0  0
   -1.7240   18.2280   -5.9880 P   0  0  1  0  0  0  0  0  0  0  0  0
   -2.6970   15.0220    1.2100 C   0  0  0  0  0  0  0  0  0  0  0  0
   -0.4370   14.5250    1.3920 C   0  0  0  0  0  0  0  0  0  0  0  0
   -2.5390   17.1280   -6.5680 O   0  0  0  0  0  0  0  0  0  0  0  0
   -2.4760   19.1750   -4.9720 O   0  0  0  0  0  0  0  0  0  0  0  0
   -1.3380   19.3410   -6.9960 O   0  0  0  0  0  0  0  0  0  0  0  0
   -3.9020   15.3510    1.8190 N   0  0  0  0  0  0  0  0  0  0  0  0
   -1.6140   14.8160    1.9750 N   0  0  0  0  0  0  0  0  0  0  0  0
    0.0540   19.5290   -7.6480 P   0  0  1  0  0  0  0  0  0  0  0  0
    1.2580   19.4420   -6.7880 O   0  0  0  0  0  0  0  0  0  0  0  0
   -0.0010   18.4790   -8.8400 O   0  0  0  0  0  0  0  0  0  0  0  0
   -0.1990   20.8920   -8.3730 O   0  0  0  0  0  0  0  0  0  0  0  0
   -1.3590   21.5460   -7.9340 C   0  0  0  0  0  0  0  0  0  0  0  0
   -1.7550   22.3460   -9.0910 C   0  0  2  0  0  0  0  0  0  0  0  0
   -2.3630   23.6920   -8.8460 C   0  0  1  0  0  0  0  0  0  0  0  0
   -2.5260   21.6040  -10.0360 O   0  0  0  0  0  0  0  0  0  0  0  0
   -1.4000   24.6830   -9.1400 O   0  0  0  0  0  0  0  0  0  0  0  0
   -3.7440   22.2980  -10.2220 C   0  0  2  0  0  0  0  0  0  0  0  0
   -3.5540   23.7470   -9.8260 C   0  0  2  0  0  0  0  0  0  0  0  0
   -4.7150   21.7220   -9.3940 O   0  0  0  0  0  0  0  0  0  0  0  0
   -3.4800   24.6340  -10.9470 O   0  0  0  0  0  0  0  0  0  0  0  0
  1  2  1  0
  2  3  1  0
  1  4  1  0
  2  5  2  3
  4  6  2  0
  4  7  1  0
  5  8  1  0
  6  9  1  0
  7 10  2  0
  8 11  1  0
  9 12  2  0
 10 12  1  0
 12 13  1  0
 11 14  1  0
 13 15  1  0
 16 14  1  6
 15 17  2  0
 15 18  1  0
 16 19  1  0
 16 20  1  0
 19 21  1  1
 17 22  1  0
 18 23  2  0
 20 24  1  0
 19 25  1  0
 24 25  1  0
 20 26  1  6
 25 27  1  6
 22 28  2  0
 23 28  1  0
 26 29  1  0
 26 30  1  0
 27 31  1  0
 29 32  2  0
 29 33  1  0
 30 34  2  0
 32 34  1  0
 31 35  1  0
 32 36  1  0
 33 37  2  0
 35 38  2  0
 35 39  1  1
 35 40  1  0
 36 41  1  0
 36 42  2  0
 37 42  1  0
 40 43  1  0
 43 44  2  0
 43 45  1  6
 43 46  1  0
 46 47  1  0
 48 47  1  1
 48 49  1  0
 48 50  1  0
 49 51  1  6
 50 52  1  0
 49 53  1  0
 52 53  1  0
 52 54  1  1
 53 55  1  6
M  END
>  <%Rank>  (174) 
68.650794

>  <N_hits>  (174) 
2

>  <submitter_name>  (174) 
nan

>  <original SMILES>  (174) 
nan

>  <∆G_unbound>  (174) 
2.872302

>  <∆G_bound>  (174) 
-13.940161

>  <regarded>  (174) 
mArh-x0524_0_A,mArh-5cms_O_14_O

>  <ref_pdb>  (174) 
nan

>  <smiles>  (174) 
CC(=NCCOC1C(O)C(CO[P@@](=O)(O)O[P@@](=O)(O)OCC2OC(O)C(O)C2O)OC1n1cnc2c(N)ncnc21)Nc1ccc(Nc2ccccc2)cc1

>  <submitter_email>  (174) 
nan

>  <disregarded>  (174) 


>  <LE>  (174) 
-0.305681

>  <submitter_institution>  (174) 
nan

>  <ref_mols>  (174) 
mArh-x0524_0_A,mArh-5cms_O_14_O

>  <N_constrained_atoms>  (174) 
53.0

>  <ref_url>  (174) 
nan

>  <method>  (174) 
nan

>  <comRMSD>  (174) 
1.103693

>  <N_unconstrained_atoms>  (174) 
2.0

>  <∆∆G>  (174) 
-16.812464

>  <runtime>  (174) 
141.204743

>  <generation_date>  (174) 
nan

$$$$
mArh-x0864_0_A-mArh-5cms_C_2_C
     RDKit          3D

 47 51  0  0  0  0  0  0  0  0999 V2000
    1.6060   11.7640   -7.0150 O   0  0  0  0  0  0  0  0  0  0  0  0
    0.5780   11.2620   -6.6070 C   0  0  0  0  0  0  0  0  0  0  0  0
   -0.0060   11.6330   -5.4020 N   0  0  0  0  0  0  0  0  0  0  0  0
   -0.0870   10.1950   -7.3860 C   0  0  0  0  0  0  0  0  0  0  0  0
    0.7660   12.5520   -4.5440 C   0  0  2  0  0  0  0  0  0  0  0  0
   -1.0930   10.9210   -4.9010 C   0  0  0  0  0  0  0  0  0  0  0  0
   -1.1550    9.5680   -6.8830 C   0  0  0  0  0  0  0  0  0  0  0  0
    1.1870   11.9330   -3.2090 C   0  0  0  0  0  0  0  0  0  0  0  0
   -2.0340    8.2080   -7.8030 Br  0  0  0  0  0  0  0  0  0  0  0  0
   -1.6640    9.9290   -5.5870 C   0  0  0  0  0  0  0  0  0  0  0  0
    0.0820   13.7840   -4.0270 C   0  0  1  0  0  0  0  0  0  0  0  0
    0.6380   10.7300   -2.9270 O   0  0  0  0  0  0  0  0  0  0  0  0
    1.9390   12.4930   -2.4320 O   0  0  0  0  0  0  0  0  0  0  0  0
    0.5140   15.2470   -4.1170 C   0  0  1  0  0  0  0  0  0  0  0  0
   -1.4030   13.8140   -4.1240 C   0  0  1  0  0  0  0  0  0  0  0  0
    0.2360   16.1940   -5.2700 C   0  0  0  0  0  0  0  0  0  0  0  0
   -1.8870   12.6080   -3.5350 O   0  0  0  0  0  0  0  0  0  0  0  0
   -0.2810   15.6680   -3.0290 O   0  0  0  0  0  0  0  0  0  0  0  0
   -1.5820   15.0480   -3.2620 C   0  0  2  0  0  0  0  0  0  0  0  0
   -1.1590   16.5610   -5.2730 O   0  0  0  0  0  0  0  0  0  0  0  0
   -2.3320   15.0660   -2.0480 N   0  0  0  0  0  0  0  0  0  0  0  0
   -1.6450   17.9320   -5.9640 P   0  0  1  0  0  0  0  0  0  0  0  0
   -1.8400   14.9400   -0.7670 C   0  0  0  0  0  0  0  0  0  0  0  0
   -3.6700   15.2650   -1.9820 C   0  0  0  0  0  0  0  0  0  0  0  0
   -2.7260   17.6920   -6.9470 O   0  0  0  0  0  0  0  0  0  0  0  0
   -2.0620   18.8880   -4.7610 O   0  0  0  0  0  0  0  0  0  0  0  0
   -0.3700   18.6580   -6.5230 O   0  0  0  0  0  0  0  0  0  0  0  0
   -2.9700   15.1300    0.0050 C   0  0  0  0  0  0  0  0  0  0  0  0
   -0.5810   14.7220   -0.3280 N   0  0  0  0  0  0  0  0  0  0  0  0
   -4.0950   15.3090   -0.7560 N   0  0  0  0  0  0  0  0  0  0  0  0
   -0.2860   19.6330   -7.7480 P   0  0  1  0  0  0  0  0  0  0  0  0
   -2.8030   15.1310    1.3670 C   0  0  0  0  0  0  0  0  0  0  0  0
   -0.5560   14.7160    1.0230 C   0  0  0  0  0  0  0  0  0  0  0  0
    0.7550   20.6870   -7.7040 O   0  0  0  0  0  0  0  0  0  0  0  0
    0.0190   18.5510   -8.8800 O   0  0  0  0  0  0  0  0  0  0  0  0
   -1.7870   20.1250   -8.0480 O   0  0  0  0  0  0  0  0  0  0  0  0
   -3.8720   15.3850    2.1890 N   0  0  0  0  0  0  0  0  0  0  0  0
   -1.5790   14.9030    1.8830 N   0  0  0  0  0  0  0  0  0  0  0  0
   -2.0830   21.4940   -8.3650 C   0  0  0  0  0  0  0  0  0  0  0  0
   -3.5750   21.7090   -8.7520 C   0  0  2  0  0  0  0  0  0  0  0  0
   -3.8570   22.2770  -10.1300 C   0  0  1  0  0  0  0  0  0  0  0  0
   -4.1840   22.6310   -7.8580 O   0  0  0  0  0  0  0  0  0  0  0  0
   -5.1490   22.2090  -10.6900 O   0  0  0  0  0  0  0  0  0  0  0  0
   -4.5210   23.7690   -8.6240 C   0  0  2  0  0  0  0  0  0  0  0  0
   -3.6210   23.7110   -9.7850 C   0  0  2  0  0  0  0  0  0  0  0  0
   -4.1980   24.8750   -7.8430 O   0  0  0  0  0  0  0  0  0  0  0  0
   -3.9170   24.6250  -10.8560 O   0  0  0  0  0  0  0  0  0  0  0  0
  1  2  2  0
  2  3  1  0
  2  4  1  0
  3  5  1  0
  3  6  1  0
  4  7  2  0
  5  8  1  1
  7  9  1  0
  6 10  2  0
  7 10  1  0
 11  5  1  6
  8 12  1  0
  8 13  2  0
 11 14  1  0
 11 15  1  0
 14 16  1  6
 15 17  1  1
 14 18  1  0
 15 19  1  0
 18 19  1  0
 16 20  1  0
 19 21  1  1
 20 22  1  0
 21 23  1  0
 21 24  1  0
 22 25  2  0
 22 26  1  1
 22 27  1  0
 23 28  2  0
 23 29  1  0
 24 30  2  0
 28 30  1  0
 27 31  1  0
 28 32  1  0
 29 33  2  0
 31 34  2  0
 31 35  1  6
 31 36  1  0
 32 37  1  0
 32 38  2  0
 33 38  1  0
 36 39  1  0
 40 39  1  1
 40 41  1  0
 40 42  1  0
 41 43  1  1
 42 44  1  0
 41 45  1  0
 44 45  1  0
 44 46  1  1
 45 47  1  6
M  END
>  <%Rank>  (175) 
69.047619

>  <N_hits>  (175) 
2

>  <submitter_name>  (175) 
nan

>  <original SMILES>  (175) 
nan

>  <∆G_unbound>  (175) 
7.407156

>  <∆G_bound>  (175) 
-5.747002

>  <regarded>  (175) 
mArh-x0864_0_A,mArh-5cms_C_2_C

>  <ref_pdb>  (175) 
nan

>  <smiles>  (175) 
Nc1ncnc2c1ncn2C1OC(CO[P@@](=O)(O)O[P@@](=O)(O)OCC2OC(O)C(O)C2O)C(C(C(=O)O)n2ccc(Br)cc2=O)C1O

>  <submitter_email>  (175) 
nan

>  <disregarded>  (175) 


>  <LE>  (175) 
-0.279876

>  <submitter_institution>  (175) 
nan

>  <ref_mols>  (175) 
mArh-x0864_0_A,mArh-5cms_C_2_C

>  <N_constrained_atoms>  (175) 
47.0

>  <ref_url>  (175) 
nan

>  <method>  (175) 
nan

>  <comRMSD>  (175) 
1.074577

>  <N_unconstrained_atoms>  (175) 
0.0

>  <∆∆G>  (175) 
-13.154158

>  <runtime>  (175) 
46.969569

>  <generation_date>  (175) 
nan

$$$$
mArh-x0905_0_A-mArh-5cb5_A_0_A
     RDKit          3D

 38 41  0  0  0  0  0  0  0  0999 V2000
   -6.4730   15.1350   -1.4410 O   0  0  0  0  0  0  0  0  0  0  0  0
   -5.1270   15.3870   -1.0700 C   0  0  1  0  0  0  0  0  0  0  0  0
   -4.9110   14.4890    0.0770 N   0  0  0  0  0  0  0  0  0  0  0  0
   -4.1540   15.1510   -2.2810 C   0  0  0  0  0  0  0  0  0  0  0  0
   -3.7670   13.6150   -0.1800 C   0  0  0  0  0  0  0  0  0  0  0  0
   -2.6260   14.8620   -1.9690 C   0  0  2  0  0  0  0  0  0  0  0  0
   -2.5180   14.4390   -0.4110 C   0  0  1  0  0  0  0  0  0  0  0  0
   -1.7410   16.0210   -2.3160 O   0  0  0  0  0  0  0  0  0  0  0  0
   -1.9420   13.7770   -2.9700 C   0  0  1  0  0  0  0  0  0  0  0  0
   -2.8530   12.9620   -3.7080 O   0  0  0  0  0  0  0  0  0  0  0  0
   -1.4360   15.9270   -3.7430 C   0  0  2  0  0  0  0  0  0  0  0  0
   -1.1060   14.4850   -4.0410 C   0  0  1  0  0  0  0  0  0  0  0  0
   -2.4750   15.4070    0.8120 C   0  0  2  0  0  0  0  0  0  0  0  0
   -1.2600   13.5770   -0.2290 C   0  0  0  0  0  0  0  0  0  0  0  0
   -0.3910   16.8740   -4.2960 C   0  0  0  0  0  0  0  0  0  0  0  0
    0.2920   14.1430   -4.0730 O   0  0  0  0  0  0  0  0  0  0  0  0
   -3.5380   16.3650    1.0010 N   0  0  0  0  0  0  0  0  0  0  0  0
   -1.2340   16.1060    0.8180 N   0  0  0  0  0  0  0  0  0  0  0  0
   -0.0850   14.4070   -0.3220 N   0  0  0  0  0  0  0  0  0  0  0  0
   -0.7230   17.0130   -5.6610 O   0  0  0  0  0  0  0  0  0  0  0  0
   -0.1090   15.2040    0.8770 C   0  0  0  0  0  0  0  0  0  0  0  0
   -1.5760   18.2720   -6.0900 P   0  0  1  0  0  0  0  0  0  0  0  0
   -2.6830   18.0010   -7.0300 O   0  0  0  0  0  0  0  0  0  0  0  0
   -2.0650   18.9110   -4.7320 O   0  0  0  0  0  0  0  0  0  0  0  0
   -0.4350   19.2440   -6.4820 O   0  0  0  0  0  0  0  0  0  0  0  0
   -0.2300   19.8480   -7.8770 P   0  0  1  0  0  0  0  0  0  0  0  0
    0.7440   20.9600   -7.9410 O   0  0  0  0  0  0  0  0  0  0  0  0
    0.0800   18.6070   -8.8330 O   0  0  0  0  0  0  0  0  0  0  0  0
   -1.7440   20.2140   -8.1970 O   0  0  0  0  0  0  0  0  0  0  0  0
   -2.0960   21.4810   -8.7010 C   0  0  0  0  0  0  0  0  0  0  0  0
   -3.2350   22.1460   -7.9740 C   0  0  1  0  0  0  0  0  0  0  0  0
   -3.7440   23.3680   -8.5000 C   0  0  1  0  0  0  0  0  0  0  0  0
   -4.3650   21.2810   -7.9590 O   0  0  0  0  0  0  0  0  0  0  0  0
   -4.1760   23.3430   -9.8670 O   0  0  0  0  0  0  0  0  0  0  0  0
   -5.4810   22.0250   -7.4770 C   0  0  2  0  0  0  0  0  0  0  0  0
   -5.0390   23.4660   -7.6670 C   0  0  2  0  0  0  0  0  0  0  0  0
   -5.7630   21.6760   -6.1250 O   0  0  0  0  0  0  0  0  0  0  0  0
   -6.0030   24.1840   -8.4490 O   0  0  0  0  0  0  0  0  0  0  0  0
  2  1  1  6
  2  3  1  0
  2  4  1  0
  3  5  1  0
  6  4  1  6
  7  5  1  1
  6  7  1  0
  6  8  1  0
  6  9  1  0
  9 10  1  6
  8 11  1  0
  9 12  1  0
 11 12  1  0
  7 13  1  0
  7 14  1  0
 11 15  1  1
 12 16  1  1
 13 17  1  6
 13 18  1  0
 14 19  1  0
 15 20  1  0
 18 21  1  0
 19 21  1  0
 20 22  1  0
 22 23  2  0
 22 24  1  1
 22 25  1  0
 25 26  1  0
 26 27  2  0
 26 28  1  6
 26 29  1  0
 29 30  1  0
 31 30  1  6
 31 32  1  0
 31 33  1  0
 32 34  1  6
 33 35  1  0
 32 36  1  0
 35 36  1  0
 35 37  1  1
 36 38  1  6
M  END
>  <%Rank>  (176) 
69.444444

>  <N_hits>  (176) 
2

>  <submitter_name>  (176) 
nan

>  <original SMILES>  (176) 
nan

>  <∆G_unbound>  (176) 
5.469591

>  <∆G_bound>  (176) 
-10.512476

>  <regarded>  (176) 
mArh-x0905_0_A,mArh-5cb5_A_0_A

>  <ref_pdb>  (176) 
nan

>  <smiles>  (176) 
NC1NCNCC12CNC(O)CC21OC(CO[P@@](=O)(O)O[P@@](=O)(O)OCC2OC(O)C(O)C2O)C(O)C1O

>  <submitter_email>  (176) 
nan

>  <disregarded>  (176) 


>  <LE>  (176) 
-0.420581

>  <submitter_institution>  (176) 
nan

>  <ref_mols>  (176) 
mArh-x0905_0_A,mArh-5cb5_A_0_A

>  <N_constrained_atoms>  (176) 
38.0

>  <ref_url>  (176) 
nan

>  <method>  (176) 
nan

>  <comRMSD>  (176) 
1.078609

>  <N_unconstrained_atoms>  (176) 
0.0

>  <∆∆G>  (176) 
-15.982067

>  <runtime>  (176) 
25.433825

>  <generation_date>  (176) 
nan

$$$$
mArh-5cms_R_17_R-mArh-5cb3_0_A
     RDKit          3D

 43 48  0  0  0  0  0  0  0  0999 V2000
   -1.5050   17.9940   -6.1190 P   0  0  1  0  0  0  0  0  0  0  0  0
   -0.1130   17.2660   -6.4380 O   0  0  0  0  0  0  0  0  0  0  0  0
    0.7960   16.7710   -5.4650 C   0  0  0  0  0  0  0  0  0  0  0  0
   -2.7000   17.4950   -6.8390 O   0  0  0  0  0  0  0  0  0  0  0  0
   -1.7300   17.9920   -4.5430 O   0  0  0  0  0  0  0  0  0  0  0  0
   -1.0710   19.4440   -6.4070 O   0  0  0  0  0  0  0  0  0  0  0  0
   -0.3410   19.7930   -7.7510 P   0  0  1  0  0  0  0  0  0  0  0  0
    0.9230   20.5590   -7.6520 O   0  0  0  0  0  0  0  0  0  0  0  0
   -0.1990   18.4790   -8.6550 O   0  0  0  0  0  0  0  0  0  0  0  0
   -1.5480   20.4890   -8.4510 O   0  0  0  0  0  0  0  0  0  0  0  0
    0.1510   15.5000   -4.9800 C   0  0  2  0  0  0  0  0  0  0  0  0
   -1.9490   21.6330   -7.7320 C   0  0  1  0  0  0  0  0  0  0  0  0
   -0.1600   15.6850   -3.6310 O   0  0  0  0  0  0  0  0  0  0  0  0
    0.8430   14.1190   -4.9740 C   0  0  1  0  0  0  0  0  0  0  0  0
    2.2510   14.1650   -4.7530 O   0  0  0  0  0  0  0  0  0  0  0  0
    0.2380   13.4650   -3.7130 C   0  0  1  0  0  0  0  0  0  0  0  0
   -0.8610   14.4820   -3.4470 C   0  0  1  0  0  0  0  0  0  0  0  0
   -1.6360   22.6720   -8.7000 C   0  0  0  0  0  0  0  0  0  0  0  0
   -3.4390   21.6270   -7.3700 C   0  0  1  0  0  0  0  0  0  0  0  0
   -0.2100   12.1400   -3.9780 O   0  0  0  0  0  0  0  0  0  0  0  0
   -2.6210   22.6450   -9.7840 N   0  0  0  0  0  0  0  0  0  0  0  0
   -1.6470   14.6310   -2.2570 N   0  0  0  0  0  0  0  0  0  0  0  0
   -4.0780   22.8180   -6.6500 C   0  0  1  0  0  0  0  0  0  0  0  0
   -4.3580   21.5990   -8.5500 C   0  0  2  0  0  0  0  0  0  0  0  0
   -3.9320   24.1380   -7.1880 O   0  0  0  0  0  0  0  0  0  0  0  0
   -4.0060   22.6680   -9.4510 C   0  0  2  0  0  0  0  0  0  0  0  0
   -2.8710   23.9590   -9.7030 C   0  0  1  0  0  0  0  0  0  0  0  0
   -1.3340   14.6780   -0.9220 C   0  0  0  0  0  0  0  0  0  0  0  0
   -2.9990   14.7910   -2.3780 C   0  0  0  0  0  0  0  0  0  0  0  0
   -5.5230   22.3880   -6.8020 C   0  0  1  0  0  0  0  0  0  0  0  0
   -5.6690   21.7160   -8.0390 O   0  0  0  0  0  0  0  0  0  0  0  0
   -1.6380   24.5930   -9.5330 O   0  0  0  0  0  0  0  0  0  0  0  0
   -5.9510   21.5520   -5.7420 O   0  0  0  0  0  0  0  0  0  0  0  0
   -4.6700   23.0630  -10.7760 C   0  0  1  0  0  0  0  0  0  0  0  0
   -2.5720   14.8800   -0.3170 C   0  0  0  0  0  0  0  0  0  0  0  0
   -0.1490   14.5710   -0.2970 N   0  0  0  0  0  0  0  0  0  0  0  0
   -3.5900   14.9440   -1.2320 N   0  0  0  0  0  0  0  0  0  0  0  0
   -3.9610   24.3750  -10.7460 C   0  0  0  0  0  0  0  0  0  0  0  0
   -4.2160   22.4450  -11.9490 O   0  0  0  0  0  0  0  0  0  0  0  0
   -2.6020   14.9940    1.0660 C   0  0  0  0  0  0  0  0  0  0  0  0
   -0.3200   14.6860    1.0420 C   0  0  0  0  0  0  0  0  0  0  0  0
   -3.7790   15.2290    1.7570 N   0  0  0  0  0  0  0  0  0  0  0  0
   -1.4510   14.8820    1.7430 N   0  0  0  0  0  0  0  0  0  0  0  0
  1  2  1  0
  2  3  1  0
  1  4  2  0
  1  5  1  1
  1  6  1  0
  6  7  1  0
  7  8  2  0
  7  9  1  6
  7 10  1  0
 11  3  1  1
 12 10  1  6
 11 13  1  0
 11 14  1  0
 14 15  1  1
 14 16  1  0
 13 17  1  0
 16 17  1  0
 12 18  1  0
 19 12  1  6
 16 20  1  6
 18 21  1  0
 17 22  1  1
 19 23  1  0
 19 24  1  0
 23 25  1  6
 26 21  1  6
 24 26  1  0
 21 27  1  0
 22 28  1  0
 22 29  1  0
 23 30  1  0
 24 31  1  1
 30 31  1  0
 27 32  1  6
 30 33  1  1
 26 34  1  0
 28 35  2  0
 28 36  1  0
 29 37  2  0
 35 37  1  0
 27 38  1  0
 34 38  1  0
 34 39  1  6
 35 40  1  0
 36 41  2  0
 40 42  1  0
 40 43  2  0
 41 43  1  0
M  END
>  <%Rank>  (177) 
69.84127

>  <N_hits>  (177) 
2

>  <submitter_name>  (177) 
nan

>  <original SMILES>  (177) 
nan

>  <∆G_unbound>  (177) 
7.085326

>  <∆G_bound>  (177) 
-7.809844

>  <regarded>  (177) 
mArh-5cms_R_17_R,mArh-5cb3_0_A

>  <ref_pdb>  (177) 
nan

>  <smiles>  (177) 
Nc1ncnc2c1ncn2C1OC(CO[P@@](=O)(O)O[P@@](=O)(O)OC2CN3C(O)CC(O)C3C3OC(O)C(O)C23)C(O)C1O

>  <submitter_email>  (177) 
nan

>  <disregarded>  (177) 


>  <LE>  (177) 
-0.346399

>  <submitter_institution>  (177) 
nan

>  <ref_mols>  (177) 
mArh-5cms_R_17_R,mArh-5cb3_0_A

>  <N_constrained_atoms>  (177) 
38.0

>  <ref_url>  (177) 
nan

>  <method>  (177) 
nan

>  <comRMSD>  (177) 
0.97925

>  <N_unconstrained_atoms>  (177) 
5.0

>  <∆∆G>  (177) 
-14.89517

>  <runtime>  (177) 
47.749447

>  <generation_date>  (177) 
nan

$$$$
mArh-x0282_0_A-mArh-x0662_0_A
     RDKit          3D

 35 38  0  0  0  0  0  0  0  0999 V2000
   -7.7300   14.3960    1.2700 C   0  0  0  0  0  0  0  0  0  0  0  0
   -8.4300   14.5800    0.0490 O   0  0  0  0  0  0  0  0  0  0  0  0
   -6.2350   14.1770    1.0100 C   0  0  0  0  0  0  0  0  0  0  0  0
   -5.3700   14.5610    2.2110 C   0  0  0  0  0  0  0  0  0  0  0  0
   -5.7180   14.8590   -0.2780 C   0  0  0  0  0  0  0  0  0  0  0  0
   -3.9390   14.1940    1.8830 C   0  0  0  0  0  0  0  0  0  0  0  0
   -4.2540   14.4980   -0.4870 C   0  0  0  0  0  0  0  0  0  0  0  0
   -3.5490   14.7790    0.5890 N   0  0  0  0  0  0  0  0  0  0  0  0
   -2.1940   14.6610    0.3810 C   0  0  0  0  0  0  0  0  0  0  0  0
   -1.7490   14.6240   -0.8910 N   0  0  0  0  0  0  0  0  0  0  0  0
   -1.3990   14.5900    1.4580 N   0  0  0  0  0  0  0  0  0  0  0  0
   -0.4110   14.5160   -1.1280 C   0  0  0  0  0  0  0  0  0  0  0  0
   -0.0960   14.4920    1.1930 C   0  0  0  0  0  0  0  0  0  0  0  0
    0.1100   14.4720   -2.5540 C   0  0  0  0  0  0  0  0  0  0  0  0
    0.4520   14.4520   -0.0980 C   0  0  0  0  0  0  0  0  0  0  0  0
    0.0330   13.1060   -3.2660 C   0  0  0  0  0  0  0  0  0  0  0  0
   -1.0760   13.1240   -4.3220 C   0  0  0  0  0  0  0  0  0  0  0  0
   -1.0080   12.0790   -5.3550 N   0  0  0  0  0  0  0  0  0  0  0  0
    0.0620   11.6620   -5.9470 C   0  0  0  0  0  0  0  0  0  0  0  0
    1.2440   12.0020   -5.7660 O   0  0  0  0  0  0  0  0  0  0  0  0
    0.0190   10.6580   -7.0750 C   0  0  0  0  0  0  0  0  0  0  0  0
   -0.8150    9.5370   -7.0220 C   0  0  0  0  0  0  0  0  0  0  0  0
    0.8160   10.8710   -8.2030 C   0  0  0  0  0  0  0  0  0  0  0  0
   -0.8400    8.6510   -8.1060 C   0  0  0  0  0  0  0  0  0  0  0  0
    0.7990   10.0060   -9.2980 C   0  0  0  0  0  0  0  0  0  0  0  0
    1.5700   10.1870  -10.4740 N   0  0  0  0  0  0  0  0  0  0  0  0
   -0.0420    8.8880   -9.2330 C   0  0  0  0  0  0  0  0  0  0  0  0
    2.2570    9.2510  -11.2300 C   0  0  0  0  0  0  0  0  0  0  0  0
    2.3570    8.0580  -10.9950 O   0  0  0  0  0  0  0  0  0  0  0  0
    2.9370    9.8300  -12.4260 C   0  0  0  0  0  0  0  0  0  0  0  0
    2.7060   11.0650  -13.0840 C   0  0  0  0  0  0  0  0  0  0  0  0
    3.9440    9.1770  -13.0590 N   0  0  0  0  0  0  0  0  0  0  0  0
    4.3110   10.0020  -14.0690 N   0  0  0  0  0  0  0  0  0  0  0  0
    3.5870   11.1620  -14.1290 C   0  0  0  0  0  0  0  0  0  0  0  0
    5.3860    9.6040  -14.9510 C   0  0  0  0  0  0  0  0  0  0  0  0
  1  2  1  0
  1  3  1  0
  3  4  1  0
  3  5  1  0
  4  6  1  0
  5  7  1  0
  6  8  1  0
  7  8  1  0
  8  9  1  0
  9 10  2  0
  9 11  1  0
 10 12  1  0
 11 13  2  0
 12 14  1  0
 12 15  2  0
 13 15  1  0
 14 16  1  0
 16 17  1  0
 17 18  1  0
 18 19  2  3
 19 20  1  0
 19 21  1  0
 21 22  2  0
 21 23  1  0
 22 24  1  0
 23 25  2  0
 25 26  1  0
 24 27  2  0
 25 27  1  0
 26 28  1  0
 28 29  2  0
 28 30  1  0
 30 31  1  0
 30 32  2  0
 32 33  1  0
 31 34  2  0
 33 34  1  0
 33 35  1  0
M  CHG  1  20  -1
M  END
>  <%Rank>  (178) 
70.238095

>  <N_hits>  (178) 
2

>  <submitter_name>  (178) 
nan

>  <original SMILES>  (178) 
nan

>  <∆G_unbound>  (178) 
0.684187

>  <∆G_bound>  (178) 
-10.384992

>  <regarded>  (178) 
mArh-x0282_0_A,mArh-x0662_0_A

>  <ref_pdb>  (178) 
nan

>  <smiles>  (178) 
Cn1ccc(C(=O)Nc2cccc(C([O-])=NCCCc3ccnc(N4CCC(CO)CC4)n3)c2)n1

>  <submitter_email>  (178) 
nan

>  <disregarded>  (178) 


>  <LE>  (178) 
-0.316262

>  <submitter_institution>  (178) 
nan

>  <ref_mols>  (178) 
mArh-x0282_0_A,mArh-x0662_0_A

>  <N_constrained_atoms>  (178) 
32.0

>  <ref_url>  (178) 
nan

>  <method>  (178) 
nan

>  <comRMSD>  (178) 
0.93636

>  <N_unconstrained_atoms>  (178) 
3.0

>  <∆∆G>  (178) 
-11.06918

>  <runtime>  (178) 
48.522085

>  <generation_date>  (178) 
nan

$$$$
mArh-x0626_0_A-mArh-x0290_0_A
     RDKit          3D

 13 13  0  0  0  0  0  0  0  0999 V2000
   -4.7940   15.0660    1.1440 N   0  0  0  0  0  0  0  0  0  0  0  0
   -6.0260   14.7010    0.6070 C   0  0  0  0  0  0  0  0  0  0  0  0
   -6.1960   14.7170   -0.6250 O   0  0  0  0  0  0  0  0  0  0  0  0
   -4.8110   15.7240    2.3940 N   0  0  0  0  0  0  0  0  0  0  0  0
   -3.5550   14.8830    0.6090 C   0  0  0  0  0  0  0  0  0  0  0  0
   -7.1870   14.2910    1.4920 C   0  0  0  0  0  0  0  0  0  0  0  0
   -2.4470   14.6940    1.2950 N   0  0  0  0  0  0  0  0  0  0  0  0
   -3.3840   14.9030   -1.0960 S   0  0  0  0  0  0  0  0  0  0  0  0
   -8.5210   14.7090    0.8970 C   0  0  0  0  0  0  0  0  0  0  0  0
   -1.7050   14.6460   -0.9110 C   0  0  0  0  0  0  0  0  0  0  0  0
   -1.3910   14.5640    0.4410 C   0  0  0  0  0  0  0  0  0  0  0  0
   -0.0710   14.3530    1.0490 C   0  0  0  0  0  0  0  0  0  0  0  0
   -0.8440   14.5530   -2.1210 C   0  0  0  0  0  0  0  0  0  0  0  0
  1  2  1  0
  2  3  2  0
  1  4  1  0
  1  5  1  0
  2  6  1  0
  5  7  2  0
  5  8  1  0
  6  9  1  0
  8 10  1  0
  7 11  1  0
 10 11  2  0
 11 12  1  0
 10 13  1  0
M  END
>  <%Rank>  (179) 
70.634921

>  <N_hits>  (179) 
2

>  <submitter_name>  (179) 
nan

>  <original SMILES>  (179) 
nan

>  <∆G_unbound>  (179) 
0.100491

>  <∆G_bound>  (179) 
-4.888194

>  <regarded>  (179) 
mArh-x0626_0_A,mArh-x0290_0_A

>  <ref_pdb>  (179) 
nan

>  <smiles>  (179) 
CCC(=O)N(N)c1nc(C)c(C)s1

>  <submitter_email>  (179) 
nan

>  <disregarded>  (179) 


>  <LE>  (179) 
-0.383745

>  <submitter_institution>  (179) 
nan

>  <ref_mols>  (179) 
mArh-x0626_0_A,mArh-x0290_0_A

>  <N_constrained_atoms>  (179) 
13.0

>  <ref_url>  (179) 
nan

>  <method>  (179) 
nan

>  <comRMSD>  (179) 
0.685367

>  <N_unconstrained_atoms>  (179) 
0.0

>  <∆∆G>  (179) 
-4.988685

>  <runtime>  (179) 
23.751379

>  <generation_date>  (179) 
nan

$$$$
mArh-5cms_C_2_C-mArh-5cb5_I_0_I
     RDKit          3D

 44 48  0  0  0  0  0  0  0  0999 V2000
   -1.4940   18.1700   -5.9610 P   0  0  1  0  0  0  0  0  0  0  0  0
   -0.9310   16.7640   -5.4250 O   0  0  0  0  0  0  0  0  0  0  0  0
    0.4690   16.5790   -5.2150 C   0  0  0  0  0  0  0  0  0  0  0  0
   -2.5730   18.0070   -6.8990 O   0  0  0  0  0  0  0  0  0  0  0  0
   -1.9240   18.9850   -4.6680 O   0  0  0  0  0  0  0  0  0  0  0  0
   -0.3090   19.0330   -6.5280 O   0  0  0  0  0  0  0  0  0  0  0  0
   -0.3710   19.8680   -7.8930 P   0  0  1  0  0  0  0  0  0  0  0  0
    0.6630   20.9310   -7.8590 O   0  0  0  0  0  0  0  0  0  0  0  0
    0.0320   18.7180   -8.9160 O   0  0  0  0  0  0  0  0  0  0  0  0
   -1.8530   20.3080   -8.4450 O   0  0  0  0  0  0  0  0  0  0  0  0
    0.6850   15.2880   -4.4150 C   0  0  1  0  0  0  0  0  0  0  0  0
   -2.3930   21.6590   -8.7730 C   0  0  1  0  0  0  0  0  0  0  0  0
    0.0000   15.4550   -3.1600 O   0  0  0  0  0  0  0  0  0  0  0  0
    0.1370   13.9690   -5.0140 C   0  0  1  0  0  0  0  0  0  0  0  0
    1.1520   13.0840   -5.4570 O   0  0  0  0  0  0  0  0  0  0  0  0
   -0.6140   13.3810   -3.8010 C   0  0  1  0  0  0  0  0  0  0  0  0
   -1.1870   14.6730   -3.2920 C   0  0  1  0  0  0  0  0  0  0  0  0
   -3.8000   21.8060   -9.5440 C   0  0  2  0  0  0  0  0  0  0  0  0
   -2.8790   22.0800   -7.4450 C   0  0  1  0  0  0  0  0  0  0  0  0
   -1.5250   12.3710   -4.2090 O   0  0  0  0  0  0  0  0  0  0  0  0
   -3.9670   22.1800  -10.8520 C   0  0  1  0  0  0  0  0  0  0  0  0
   -4.6630   22.7660   -8.8820 O   0  0  0  0  0  0  0  0  0  0  0  0
   -1.9850   14.8200   -2.0980 N   0  0  0  0  0  0  0  0  0  0  0  0
   -3.5800   23.4530   -7.4230 C   0  0  1  0  0  0  0  0  0  0  0  0
   -3.9140   21.1180   -7.1300 O   0  0  0  0  0  0  0  0  0  0  0  0
   -5.2110   21.9340  -11.4760 O   0  0  0  0  0  0  0  0  0  0  0  0
   -4.0680   23.9400   -8.6850 O   0  0  0  0  0  0  0  0  0  0  0  0
   -5.1960   23.6530   -9.8600 C   0  0  2  0  0  0  0  0  0  0  0  0
   -4.0490   23.7000  -10.7100 C   0  0  2  0  0  0  0  0  0  0  0  0
   -1.5790   14.7850   -0.7880 C   0  0  0  0  0  0  0  0  0  0  0  0
   -3.3430   15.0640   -2.1250 C   0  0  0  0  0  0  0  0  0  0  0  0
   -5.1080   21.8740   -7.0850 C   0  0  2  0  0  0  0  0  0  0  0  0
   -4.7500   23.0590   -6.5710 C   0  0  2  0  0  0  0  0  0  0  0  0
   -5.4820   24.9160   -9.3820 O   0  0  0  0  0  0  0  0  0  0  0  0
   -4.2440   24.4620  -11.9260 O   0  0  0  0  0  0  0  0  0  0  0  0
   -5.9800   21.2330   -6.1840 O   0  0  0  0  0  0  0  0  0  0  0  0
   -5.7610   24.0470   -6.6520 O   0  0  0  0  0  0  0  0  0  0  0  0
   -2.8820   15.0710   -0.0440 C   0  0  0  0  0  0  0  0  0  0  0  0
   -0.3750   14.5810   -0.2300 N   0  0  0  0  0  0  0  0  0  0  0  0
   -3.9030   15.2150   -0.9380 N   0  0  0  0  0  0  0  0  0  0  0  0
   -2.7980   15.1420    1.3280 C   0  0  0  0  0  0  0  0  0  0  0  0
   -0.4870   14.6650    1.1200 C   0  0  0  0  0  0  0  0  0  0  0  0
   -3.8940   15.4390    2.1080 N   0  0  0  0  0  0  0  0  0  0  0  0
   -1.5900   14.9210    1.8970 N   0  0  0  0  0  0  0  0  0  0  0  0
  1  2  1  0
  2  3  1  0
  1  4  2  0
  1  5  1  1
  1  6  1  0
  6  7  1  0
  7  8  2  0
  7  9  1  6
  7 10  1  0
 11  3  1  6
 12 10  1  1
 11 13  1  0
 11 14  1  0
 14 15  1  1
 14 16  1  0
 13 17  1  0
 16 17  1  0
 12 18  1  0
 12 19  1  0
 16 20  1  6
 18 21  1  0
 18 22  1  1
 17 23  1  1
 19 24  1  0
 19 25  1  6
 21 26  1  1
 24 27  1  6
 22 28  1  0
 21 29  1  0
 28 29  1  0
 23 30  1  0
 23 31  1  0
 25 32  1  0
 24 33  1  0
 32 33  1  0
 28 34  1  1
 29 35  1  6
 32 36  1  1
 33 37  1  6
 30 38  2  0
 30 39  1  0
 31 40  2  0
 38 40  1  0
 38 41  1  0
 39 42  2  0
 41 43  1  0
 41 44  2  0
 42 44  1  0
M  END
>  <%Rank>  (180) 
71.031746

>  <N_hits>  (180) 
2

>  <submitter_name>  (180) 
nan

>  <original SMILES>  (180) 
nan

>  <∆G_unbound>  (180) 
6.0598

>  <∆G_bound>  (180) 
-3.687987

>  <regarded>  (180) 
mArh-5cms_C_2_C,mArh-5cb5_I_0_I

>  <ref_pdb>  (180) 
nan

>  <smiles>  (180) 
Nc1ncnc2c1ncn2C1OC(CO[P@@](=O)(O)O[P@@](=O)(O)OC(C2OC(O)C(O)C2O)C2OC(O)C(O)C2O)C(O)C1O

>  <submitter_email>  (180) 
nan

>  <disregarded>  (180) 


>  <LE>  (180) 
-0.221541

>  <submitter_institution>  (180) 
nan

>  <ref_mols>  (180) 
mArh-5cms_C_2_C,mArh-5cb5_I_0_I

>  <N_constrained_atoms>  (180) 
44.0

>  <ref_url>  (180) 
nan

>  <method>  (180) 
nan

>  <comRMSD>  (180) 
1.045721

>  <N_unconstrained_atoms>  (180) 
0.0

>  <∆∆G>  (180) 
-9.747786

>  <runtime>  (180) 
68.476591

>  <generation_date>  (180) 
nan

$$$$
mArh-x0676_0_B-mArh-5mqx_0_A
     RDKit          3D

 54 59  0  0  0  0  0  0  0  0999 V2000
    5.8080    6.6630   -9.1030 C   0  0  0  0  0  0  0  0  0  0  0  0
    4.7630    7.1830  -10.0240 C   0  0  0  0  0  0  0  0  0  0  0  0
    5.0050    7.6760  -11.2040 N   0  0  0  0  0  0  0  0  0  0  0  0
    3.3140    7.1750   -9.6480 C   0  0  0  0  0  0  0  0  0  0  0  0
    2.7460    7.9950  -10.7830 C   0  0  0  0  0  0  0  0  0  0  0  0
    3.7670    8.0760  -11.7220 N   0  0  0  0  0  0  0  0  0  0  0  0
    1.5440    8.4160  -10.6700 N   0  0  0  0  0  0  0  0  0  0  0  0
    3.8760    9.1190  -12.6990 C   0  0  0  0  0  0  0  0  0  0  0  0
    0.7310    8.1380   -9.4900 C   0  0  0  0  0  0  0  0  0  0  0  0
    2.9240   10.1580  -12.6850 C   0  0  0  0  0  0  0  0  0  0  0  0
    4.9100    9.1150  -13.6550 C   0  0  0  0  0  0  0  0  0  0  0  0
    0.1890    9.4480   -8.9450 C   0  0  0  0  0  0  0  0  0  0  0  0
    2.9560   11.2120  -13.5910 C   0  0  0  0  0  0  0  0  0  0  0  0
    5.1200   10.1900  -14.7520 C   0  0  0  0  0  0  0  0  0  0  0  0
    0.8200    9.5570   -7.5740 C   0  0  0  0  0  0  0  0  0  0  0  0
    4.0470   11.2720  -14.6570 C   0  0  0  0  0  0  0  0  0  0  0  0
    0.6520   11.0300   -7.2020 C   0  0  0  0  0  0  0  0  0  0  0  0
   -0.5540   11.3440   -6.3300 C   0  0  0  0  0  0  0  0  0  0  0  0
   -0.2990   10.9520   -4.9790 O   0  0  0  0  0  0  0  0  0  0  0  0
   -0.9660   11.7780   -4.0430 C   0  0  2  0  0  0  0  0  0  0  0  0
   -0.7820   13.2890   -4.3150 C   0  0  1  0  0  0  0  0  0  0  0  0
   -0.4100   11.5290   -2.6430 C   0  0  2  0  0  0  0  0  0  0  0  0
   -1.9920   14.0740   -4.8470 C   0  0  0  0  0  0  0  0  0  0  0  0
   -1.0040   10.4430   -1.9420 O   0  0  0  0  0  0  0  0  0  0  0  0
   -0.3380   13.8790   -3.0810 O   0  0  0  0  0  0  0  0  0  0  0  0
   -0.5680   12.9170   -2.0320 C   0  0  1  0  0  0  0  0  0  0  0  0
   -1.6320   15.4240   -5.0960 O   0  0  0  0  0  0  0  0  0  0  0  0
   -1.7270   13.3570   -1.2930 N   0  0  0  0  0  0  0  0  0  0  0  0
   -2.7670   16.5160   -4.9470 P   0  0  2  0  0  0  0  0  0  0  0  0
   -1.5480   13.8260   -0.0700 C   0  0  0  0  0  0  0  0  0  0  0  0
   -3.0710   13.4290   -1.5790 C   0  0  0  0  0  0  0  0  0  0  0  0
   -3.4820   16.0220   -3.6130 O   0  0  0  0  0  0  0  0  0  0  0  0
   -3.6430   16.2600   -6.2540 O   0  0  0  0  0  0  0  0  0  0  0  0
   -2.2220   18.0820   -4.9280 O   0  0  0  0  0  0  0  0  0  0  0  0
   -2.7910   14.2120    0.3750 C   0  0  0  0  0  0  0  0  0  0  0  0
   -0.3600   13.8760    0.5140 N   0  0  0  0  0  0  0  0  0  0  0  0
   -3.7540   13.9520   -0.5660 N   0  0  0  0  0  0  0  0  0  0  0  0
   -2.4870   19.5570   -5.6980 P   0  0  2  0  0  0  0  0  0  0  0  0
   -2.8170   14.7700    1.6300 C   0  0  0  0  0  0  0  0  0  0  0  0
   -0.5050   14.3960    1.7050 C   0  0  0  0  0  0  0  0  0  0  0  0
   -1.3120   20.1040   -6.3070 O   0  0  0  0  0  0  0  0  0  0  0  0
   -2.9570   20.5760   -4.5470 O   0  0  0  0  0  0  0  0  0  0  0  0
   -3.8110   19.4970   -6.7370 O   0  0  0  0  0  0  0  0  0  0  0  0
   -3.9470   15.2630    2.2560 N   0  0  0  0  0  0  0  0  0  0  0  0
   -1.6460   14.8350    2.2630 N   0  0  0  0  0  0  0  0  0  0  0  0
   -5.0740   20.3150   -6.9200 C   0  0  0  0  0  0  0  0  0  0  0  0
   -6.1350   19.3780   -7.7180 C   0  0  2  0  0  0  0  0  0  0  0  0
   -7.4230   19.5380   -8.6120 C   0  0  2  0  0  0  0  0  0  0  0  0
   -6.0810   17.9820   -7.2910 O   0  0  0  0  0  0  0  0  0  0  0  0
   -8.2740   20.6190   -8.4570 O   0  0  0  0  0  0  0  0  0  0  0  0
   -7.0780   17.1860   -7.9650 C   0  0  2  0  0  0  0  0  0  0  0  0
   -8.1140   18.1640   -8.5880 C   0  0  2  0  0  0  0  0  0  0  0  0
   -7.6640   16.2160   -7.0960 O   0  0  0  0  0  0  0  0  0  0  0  0
   -8.4800   17.7550   -9.9000 O   0  0  0  0  0  0  0  0  0  0  0  0
  1  2  1  0
  2  3  2  0
  2  4  1  0
  4  5  1  0
  3  6  1  0
  5  6  1  0
  5  7  2  3
  6  8  1  0
  7  9  1  0
  8 10  2  0
  8 11  1  0
  9 12  1  0
 10 13  1  0
 11 14  2  0
 12 15  1  0
 13 16  2  0
 14 16  1  0
 15 17  1  0
 17 18  1  0
 18 19  1  0
 20 19  1  6
 20 21  1  0
 20 22  1  0
 21 23  1  1
 22 24  1  1
 21 25  1  0
 22 26  1  0
 25 26  1  0
 23 27  1  0
 26 28  1  6
 27 29  1  0
 28 30  1  0
 28 31  1  0
 29 32  2  0
 29 33  1  6
 29 34  1  0
 30 35  2  0
 30 36  1  0
 31 37  2  0
 35 37  1  0
 34 38  1  0
 35 39  1  0
 36 40  2  0
 38 41  2  0
 38 42  1  1
 38 43  1  0
 39 44  1  0
 39 45  2  0
 40 45  1  0
 43 46  1  0
 47 46  1  1
 47 48  1  0
 47 49  1  0
 48 50  1  1
 49 51  1  0
 48 52  1  0
 51 52  1  0
 51 53  1  1
 52 54  1  6
M  END
>  <%Rank>  (181) 
71.428571

>  <N_hits>  (181) 
2

>  <submitter_name>  (181) 
nan

>  <original SMILES>  (181) 
nan

>  <∆G_unbound>  (181) 
6.750573

>  <∆G_bound>  (181) 
-5.510362

>  <regarded>  (181) 
mArh-x0676_0_B,mArh-5mqx_0_A

>  <ref_pdb>  (181) 
nan

>  <smiles>  (181) 
CC1=NN(c2ccccc2)C(=NCCCCCOC2C(CO[P@](=O)(O)O[P@@](=O)(O)OCC3OC(O)C(O)C3O)OC(n3cnc4c(N)ncnc43)C2O)C1

>  <submitter_email>  (181) 
nan

>  <disregarded>  (181) 


>  <LE>  (181) 
-0.227054

>  <submitter_institution>  (181) 
nan

>  <ref_mols>  (181) 
mArh-x0676_0_B,mArh-5mqx_0_A

>  <N_constrained_atoms>  (181) 
49.0

>  <ref_url>  (181) 
nan

>  <method>  (181) 
nan

>  <comRMSD>  (181) 
1.051917

>  <N_unconstrained_atoms>  (181) 
5.0

>  <∆∆G>  (181) 
-12.260936

>  <runtime>  (181) 
60.676527

>  <generation_date>  (181) 
nan

$$$$
mArh-5cms_K_10_K-mArh-5cms_L_11_L
     RDKit          3D

 38 41  0  0  0  0  0  0  0  0999 V2000
   -1.5910   18.2780   -5.9730 P   0  0  1  0  0  0  0  0  0  0  0  0
   -0.9130   17.3590   -4.8830 O   0  0  0  0  0  0  0  0  0  0  0  0
    0.2560   16.6200   -5.2180 C   0  0  0  0  0  0  0  0  0  0  0  0
   -2.4890   17.5490   -6.9130 O   0  0  0  0  0  0  0  0  0  0  0  0
   -2.3670   19.3110   -5.0350 O   0  0  0  0  0  0  0  0  0  0  0  0
   -0.3570   19.0570   -6.5290 O   0  0  0  0  0  0  0  0  0  0  0  0
   -0.2320   19.7960   -7.8840 P   0  0  1  0  0  0  0  0  0  0  0  0
    0.7860   20.8800   -7.9070 O   0  0  0  0  0  0  0  0  0  0  0  0
    0.0740   18.6220   -8.9140 O   0  0  0  0  0  0  0  0  0  0  0  0
   -1.6880   20.3010   -8.2730 O   0  0  0  0  0  0  0  0  0  0  0  0
   -0.1100   15.2780   -4.6450 C   0  0  2  0  0  0  0  0  0  0  0  0
   -1.7680   21.6860   -8.5010 C   0  0  0  0  0  0  0  0  0  0  0  0
    0.0910   15.3770   -3.2390 O   0  0  0  0  0  0  0  0  0  0  0  0
    0.4310   13.8960   -5.0210 C   0  0  0  0  0  0  0  0  0  0  0  0
    1.8060   13.6520   -4.8760 O   0  0  0  0  0  0  0  0  0  0  0  0
    0.1320   13.4750   -6.3420 O   0  0  0  0  0  0  0  0  0  0  0  0
   -0.3750   13.1220   -3.9640 C   0  0  1  0  0  0  0  0  0  0  0  0
   -0.4140   14.1250   -2.7840 C   0  0  2  0  0  0  0  0  0  0  0  0
   -3.1870   22.2290   -8.5910 C   0  0  1  0  0  0  0  0  0  0  0  0
   -1.6360   12.6340   -4.4520 O   0  0  0  0  0  0  0  0  0  0  0  0
   -3.2560   23.7100   -8.8640 C   0  0  1  0  0  0  0  0  0  0  0  0
   -4.1830   21.6720   -9.5110 N   0  0  0  0  0  0  0  0  0  0  0  0
   -1.6000   14.4550   -2.0120 N   0  0  0  0  0  0  0  0  0  0  0  0
   -1.9630   24.2570   -8.8820 O   0  0  0  0  0  0  0  0  0  0  0  0
   -5.4170   21.9340   -8.8030 O   0  0  0  0  0  0  0  0  0  0  0  0
   -4.3090   22.4880  -10.7110 C   0  0  2  0  0  0  0  0  0  0  0  0
   -4.1750   23.8910  -10.1240 C   0  0  2  0  0  0  0  0  0  0  0  0
   -1.5700   14.5560   -0.6720 C   0  0  0  0  0  0  0  0  0  0  0  0
   -2.8860   14.7240   -2.4240 C   0  0  0  0  0  0  0  0  0  0  0  0
   -5.5910   22.3680  -11.2810 O   0  0  0  0  0  0  0  0  0  0  0  0
   -3.7570   24.8830  -11.1010 O   0  0  0  0  0  0  0  0  0  0  0  0
   -2.8540   14.8910   -0.2800 C   0  0  0  0  0  0  0  0  0  0  0  0
   -0.4830   14.3620    0.0780 N   0  0  0  0  0  0  0  0  0  0  0  0
   -3.6810   14.9960   -1.3890 N   0  0  0  0  0  0  0  0  0  0  0  0
   -3.0440   15.0500    1.1030 C   0  0  0  0  0  0  0  0  0  0  0  0
   -0.7740   14.5250    1.3720 C   0  0  0  0  0  0  0  0  0  0  0  0
   -4.2610   15.3980    1.6780 N   0  0  0  0  0  0  0  0  0  0  0  0
   -1.9700   14.8470    1.9160 N   0  0  0  0  0  0  0  0  0  0  0  0
  1  2  1  0
  2  3  1  0
  1  4  2  0
  1  5  1  1
  1  6  1  0
  6  7  1  0
  7  8  2  0
  7  9  1  6
  7 10  1  0
 11  3  1  6
 10 12  1  0
 11 13  1  0
 11 14  1  0
 14 15  1  0
 14 16  1  0
 14 17  1  0
 13 18  1  0
 17 18  1  0
 19 12  1  6
 17 20  1  6
 19 21  1  0
 19 22  1  0
 18 23  1  6
 21 24  1  6
 22 25  1  0
 22 26  1  0
 21 27  1  0
 26 27  1  0
 23 28  1  0
 23 29  1  0
 26 30  1  1
 27 31  1  6
 28 32  2  0
 28 33  1  0
 29 34  2  0
 32 34  1  0
 32 35  1  0
 33 36  2  0
 35 37  1  0
 35 38  2  0
 36 38  1  0
M  END
>  <%Rank>  (182) 
71.825397

>  <N_hits>  (182) 
2

>  <submitter_name>  (182) 
nan

>  <original SMILES>  (182) 
nan

>  <∆G_unbound>  (182) 
6.082103

>  <∆G_bound>  (182) 
-10.196938

>  <regarded>  (182) 
mArh-5cms_K_10_K,mArh-5cms_L_11_L

>  <ref_pdb>  (182) 
nan

>  <smiles>  (182) 
Nc1ncnc2c1ncn2C1OC(CO[P@@](=O)(O)O[P@@](=O)(O)OCC2C(O)C(O)C(O)N2O)C(O)(O)C1O

>  <submitter_email>  (182) 
nan

>  <disregarded>  (182) 


>  <LE>  (182) 
-0.428396

>  <submitter_institution>  (182) 
nan

>  <ref_mols>  (182) 
mArh-5cms_K_10_K,mArh-5cms_L_11_L

>  <N_constrained_atoms>  (182) 
38.0

>  <ref_url>  (182) 
nan

>  <method>  (182) 
nan

>  <comRMSD>  (182) 
1.128051

>  <N_unconstrained_atoms>  (182) 
0.0

>  <∆∆G>  (182) 
-16.279041

>  <runtime>  (182) 
55.033168

>  <generation_date>  (182) 
nan

$$$$
mArh-5lw0_A_0_A-mArh-5cms_E_5_E
     RDKit          3D

 46 50  0  0  0  0  0  0  0  0999 V2000
   -1.5210   17.6200   -5.8440 P   0  0  1  0  0  0  0  0  0  0  0  0
   -0.7810   16.3260   -5.3000 O   0  0  0  0  0  0  0  0  0  0  0  0
    0.6050   16.3550   -5.0160 C   0  0  0  0  0  0  0  0  0  0  0  0
   -2.6770   17.3070   -6.7070 O   0  0  0  0  0  0  0  0  0  0  0  0
   -1.9430   18.4620   -4.5720 O   0  0  0  0  0  0  0  0  0  0  0  0
   -0.3840   18.4940   -6.4660 O   0  0  0  0  0  0  0  0  0  0  0  0
   -0.5380   19.2990   -7.7940 P   0  0  2  0  0  0  0  0  0  0  0  0
   -0.1210   18.4470   -8.9230 O   0  0  0  0  0  0  0  0  0  0  0  0
    0.3660   20.7230   -7.8890 N   0  0  0  0  0  0  0  0  0  0  0  0
   -2.0890   19.7070   -7.7720 O   0  0  0  0  0  0  0  0  0  0  0  0
    1.0230   15.1710   -4.1490 C   0  0  1  0  0  0  0  0  0  0  0  0
   -2.4110   21.0870   -7.9910 C   0  0  1  0  0  0  0  0  0  0  0  0
    1.4520   20.6320   -7.3520 O   0  0  0  0  0  0  0  0  0  0  0  0
    0.3220   15.2360   -2.8990 O   0  0  0  0  0  0  0  0  0  0  0  0
    0.7140   13.7720   -4.7260 C   0  0  1  0  0  0  0  0  0  0  0  0
    1.7890   12.8600   -4.5400 O   0  0  0  0  0  0  0  0  0  0  0  0
   -2.2150   21.5580   -9.2910 C   0  0  0  0  0  0  0  0  0  0  0  0
   -0.5450   13.2890   -3.9340 C   0  0  2  0  0  0  0  0  0  0  0  0
   -0.9160   14.5800   -3.1860 C   0  0  1  0  0  0  0  0  0  0  0  0
   -3.8000   21.5310   -7.6410 C   0  0  1  0  0  0  0  0  0  0  0  0
   -0.1670   12.1510   -3.1530 O   0  0  0  0  0  0  0  0  0  0  0  0
   -4.9080   21.4890   -8.6500 C   0  0  2  0  0  0  0  0  0  0  0  0
   -4.4070   20.6570   -6.7120 O   0  0  0  0  0  0  0  0  0  0  0  0
   -1.8110   14.7330   -2.0670 N   0  0  0  0  0  0  0  0  0  0  0  0
   -3.2150   22.6100   -9.8140 C   0  0  1  0  0  0  0  0  0  0  0  0
   -4.7740   22.1850   -9.8820 O   0  0  0  0  0  0  0  0  0  0  0  0
   -5.7310   21.1810   -6.6910 C   0  0  1  0  0  0  0  0  0  0  0  0
   -5.9950   22.0380   -7.8800 C   0  0  2  0  0  0  0  0  0  0  0  0
   -1.5770   14.6740   -0.7160 C   0  0  0  0  0  0  0  0  0  0  0  0
   -3.1620   15.0170   -2.2740 C   0  0  0  0  0  0  0  0  0  0  0  0
   -3.8060   22.5290  -11.2220 C   0  0  1  0  0  0  0  0  0  0  0  0
   -4.3740   23.0550   -9.1020 O   0  0  0  0  0  0  0  0  0  0  0  0
   -6.5880   20.0800   -6.9070 O   0  0  0  0  0  0  0  0  0  0  0  0
   -7.2250   21.6680   -8.5050 O   0  0  0  0  0  0  0  0  0  0  0  0
   -5.0880   22.0480  -11.4650 O   0  0  0  0  0  0  0  0  0  0  0  0
   -2.9550   14.9890   -0.1890 C   0  0  0  0  0  0  0  0  0  0  0  0
   -0.4410   14.4240   -0.0360 N   0  0  0  0  0  0  0  0  0  0  0  0
   -3.8680   15.1750   -1.1750 N   0  0  0  0  0  0  0  0  0  0  0  0
   -4.9850   23.9090  -10.1250 C   0  0  2  0  0  0  0  0  0  0  0  0
   -3.8720   24.0240  -11.1210 C   0  0  2  0  0  0  0  0  0  0  0  0
   -5.2510   25.1610   -9.6170 O   0  0  0  0  0  0  0  0  0  0  0  0
   -4.0880   24.7030  -12.3540 O   0  0  0  0  0  0  0  0  0  0  0  0
   -2.9290   15.0210    1.3020 C   0  0  0  0  0  0  0  0  0  0  0  0
   -0.6470   14.4760    1.2960 C   0  0  0  0  0  0  0  0  0  0  0  0
   -4.0730   15.3420    1.9940 N   0  0  0  0  0  0  0  0  0  0  0  0
   -1.7850   14.7460    1.9710 N   0  0  0  0  0  0  0  0  0  0  0  0
  1  2  1  0
  2  3  1  0
  1  4  2  0
  1  5  1  1
  1  6  1  0
  6  7  1  0
  7  8  2  0
  7  9  1  1
  7 10  1  0
 11  3  1  6
 10 12  1  0
  9 13  2  0
 11 14  1  0
 11 15  1  0
 15 16  1  1
 12 17  1  6
 15 18  1  0
 14 19  1  0
 18 19  1  0
 12 20  1  0
 18 21  1  1
 20 22  1  0
 20 23  1  1
 19 24  1  1
 25 17  1  1
 22 26  1  6
 23 27  1  0
 22 28  1  0
 27 28  1  0
 24 29  1  0
 24 30  1  0
 25 31  1  0
 25 32  1  0
 27 33  1  6
 28 34  1  6
 31 35  1  1
 29 36  2  0
 29 37  1  0
 30 38  2  0
 36 38  1  0
 32 39  1  0
 31 40  1  0
 39 40  1  0
 39 41  1  1
 40 42  1  6
 36 43  1  0
 37 44  2  0
 43 45  1  0
 43 46  2  0
 44 46  1  0
M  END
>  <%Rank>  (183) 
72.222222

>  <N_hits>  (183) 
2

>  <submitter_name>  (183) 
nan

>  <original SMILES>  (183) 
nan

>  <∆G_unbound>  (183) 
9.00329

>  <∆G_bound>  (183) 
-0.361733

>  <regarded>  (183) 
mArh-5lw0_A_0_A,mArh-5cms_E_5_E

>  <ref_pdb>  (183) 
nan

>  <smiles>  (183) 
Nc1ncnc2c1ncn2C1OC(CO[P@@](=O)(O)O[P@](=O)(N=O)OC(CC2OC(O)C(O)C2O)C2OC(O)C(O)C2O)C(O)C1O

>  <submitter_email>  (183) 
nan

>  <disregarded>  (183) 


>  <LE>  (183) 
-0.203587

>  <submitter_institution>  (183) 
nan

>  <ref_mols>  (183) 
mArh-5lw0_A_0_A,mArh-5cms_E_5_E

>  <N_constrained_atoms>  (183) 
46.0

>  <ref_url>  (183) 
nan

>  <method>  (183) 
nan

>  <comRMSD>  (183) 
1.092247

>  <N_unconstrained_atoms>  (183) 
0.0

>  <∆∆G>  (183) 
-9.365023

>  <runtime>  (183) 
42.371991

>  <generation_date>  (183) 
nan

$$$$
mArh-x0631_0_A-mArh-x0159_0_B
     RDKit          3D

 27 30  0  0  0  0  0  0  0  0999 V2000
   -2.7050    8.8380   -7.4150 C   0  0  0  0  0  0  0  0  0  0  0  0
   -1.7070    8.1760   -6.4780 C   0  0  0  0  0  0  0  0  0  0  0  0
   -0.4710    9.0580   -6.3380 C   0  0  0  0  0  0  0  0  0  0  0  0
   -0.3750    9.9380   -7.5240 N   0  0  0  0  0  0  0  0  0  0  0  0
    0.3470   11.1560   -7.2050 N   0  0  0  0  0  0  0  0  0  0  0  0
    0.4720    9.3520   -8.4470 N   0  0  0  0  0  0  0  0  0  0  0  0
    1.0180   11.4820   -8.3460 N   0  0  0  0  0  0  0  0  0  0  0  0
    1.0730   10.3880   -9.0480 C   0  0  0  0  0  0  0  0  0  0  0  0
    1.0790    8.1090   -8.1630 C   0  0  0  0  0  0  0  0  0  0  0  0
    1.6870   10.2400  -10.2590 N   0  0  0  0  0  0  0  0  0  0  0  0
    1.8620    7.6240   -9.3510 C   0  0  0  0  0  0  0  0  0  0  0  0
    1.7210   11.2360  -11.3380 C   0  0  0  0  0  0  0  0  0  0  0  0
    1.2640    6.3200   -9.8080 C   0  0  0  0  0  0  0  0  0  0  0  0
    2.2980   10.6810  -12.7090 C   0  0  2  0  0  0  0  0  0  0  0  0
    1.6270    5.3090   -8.7840 C   0  0  0  0  0  0  0  0  0  0  0  0
    3.6230    9.9860  -12.6330 N   0  0  0  0  0  0  0  0  0  0  0  0
    2.5360   11.7320  -13.7400 C   0  0  0  0  0  0  0  0  0  0  0  0
    1.4880    9.6140  -13.1970 N   0  0  0  0  0  0  0  0  0  0  0  0
    2.6350    4.4080   -9.0830 C   0  0  0  0  0  0  0  0  0  0  0  0
    0.9840    5.2650   -7.5410 C   0  0  0  0  0  0  0  0  0  0  0  0
    3.6110   11.4210  -14.4790 C   0  0  0  0  0  0  0  0  0  0  0  0
    4.1770   10.1250  -14.0070 C   0  0  0  0  0  0  0  0  0  0  0  0
    1.8710    8.5180  -12.3420 C   0  0  0  0  0  0  0  0  0  0  0  0
    3.3200    8.5920  -12.2810 N   0  0  0  0  0  0  0  0  0  0  0  0
    3.0180    3.4640   -8.1610 C   0  0  0  0  0  0  0  0  0  0  0  0
    1.3690    4.3150   -6.6170 C   0  0  0  0  0  0  0  0  0  0  0  0
    2.3920    3.4180   -6.9380 C   0  0  0  0  0  0  0  0  0  0  0  0
  1  2  1  0
  2  3  1  0
  3  4  1  0
  4  5  1  0
  4  6  1  0
  5  7  1  0
  6  8  1  0
  7  8  2  0
  6  9  1  0
  8 10  1  0
  9 11  1  0
 10 12  1  0
 11 13  1  0
 14 12  1  1
 13 15  1  0
 14 16  1  0
 14 17  1  0
 14 18  1  0
 15 19  2  0
 15 20  1  0
 17 21  2  0
 16 22  1  0
 21 22  1  0
 18 23  1  0
 16 24  1  0
 23 24  1  0
 19 25  1  0
 20 26  2  0
 25 27  2  0
 26 27  1  0
M  END
>  <%Rank>  (184) 
72.619048

>  <N_hits>  (184) 
2

>  <submitter_name>  (184) 
nan

>  <original SMILES>  (184) 
nan

>  <∆G_unbound>  (184) 
1.406361

>  <∆G_bound>  (184) 
-2.882366

>  <regarded>  (184) 
mArh-x0631_0_A,mArh-x0159_0_B

>  <ref_pdb>  (184) 
nan

>  <smiles>  (184) 
CCCN1NN=C(NCC23C=CCN2NCN3)N1CCCc1ccccc1

>  <submitter_email>  (184) 
nan

>  <disregarded>  (184) 


>  <LE>  (184) 
-0.158842

>  <submitter_institution>  (184) 
nan

>  <ref_mols>  (184) 
mArh-x0631_0_A,mArh-x0159_0_B

>  <N_constrained_atoms>  (184) 
26.0

>  <ref_url>  (184) 
nan

>  <method>  (184) 
nan

>  <comRMSD>  (184) 
0.856

>  <N_unconstrained_atoms>  (184) 
1.0

>  <∆∆G>  (184) 
-4.288728

>  <runtime>  (184) 
37.285206

>  <generation_date>  (184) 
nan

$$$$
mArh-x0727_0_A-mArh-x0805_0_A
     RDKit          3D

 27 29  0  0  0  0  0  0  0  0999 V2000
    0.4980   11.0940   -5.7690 N   0  0  0  0  0  0  0  0  0  0  0  0
    1.2910   12.1060   -5.1940 C   0  0  1  0  0  0  0  0  0  0  0  0
    0.7650   13.3310   -5.9180 C   0  0  0  0  0  0  0  0  0  0  0  0
    0.5160   10.7980   -7.0690 C   0  0  0  0  0  0  0  0  0  0  0  0
    1.3580   11.1580   -7.8600 O   0  0  0  0  0  0  0  0  0  0  0  0
    0.9360   12.1480   -3.7110 C   0  0  0  0  0  0  0  0  0  0  0  0
   -0.6680    9.9360   -7.3000 C   0  0  0  0  0  0  0  0  0  0  0  0
    0.2570   10.9990   -3.2050 O   0  0  0  0  0  0  0  0  0  0  0  0
    1.9980   12.4820   -2.8260 O   0  0  0  0  0  0  0  0  0  0  0  0
   -1.1140    9.7040   -8.7150 C   0  0  0  0  0  0  0  0  0  0  0  0
   -0.4490    8.5260   -6.7940 C   0  0  0  0  0  0  0  0  0  0  0  0
   -0.0100   13.2670   -3.9110 C   0  0  2  0  0  0  0  0  0  0  0  0
   -2.2010    8.6590   -8.4630 C   0  0  0  0  0  0  0  0  0  0  0  0
   -1.7540    7.8800   -7.2120 C   0  0  0  0  0  0  0  0  0  0  0  0
    0.6200   14.1650   -4.9760 C   0  0  0  0  0  0  0  0  0  0  0  0
   -0.2990   14.0560   -2.6970 C   0  0  2  0  0  0  0  0  0  0  0  0
   -1.7720   14.0820   -2.4180 C   0  0  0  0  0  0  0  0  0  0  0  0
    1.9150   14.4720   -4.4890 O   0  0  0  0  0  0  0  0  0  0  0  0
    0.3590   15.4280   -2.8370 C   0  0  0  0  0  0  0  0  0  0  0  0
   -2.7030   13.3490   -3.1750 C   0  0  0  0  0  0  0  0  0  0  0  0
   -2.2030   14.8550   -1.3790 C   0  0  0  0  0  0  0  0  0  0  0  0
    1.7650   15.3790   -3.4370 C   0  0  0  0  0  0  0  0  0  0  0  0
   -3.5300   14.9580   -1.0520 C   0  0  0  0  0  0  0  0  0  0  0  0
   -4.0540   13.4260   -2.8560 C   0  0  0  0  0  0  0  0  0  0  0  0
   -4.0130   15.7330   -0.0400 O   0  0  0  0  0  0  0  0  0  0  0  0
   -4.4670   14.2360   -1.7910 C   0  0  0  0  0  0  0  0  0  0  0  0
   -4.3100   15.1200    1.2040 C   0  0  0  0  0  0  0  0  0  0  0  0
  1  2  1  0
  2  3  1  6
  1  4  1  0
  4  5  2  0
  2  6  1  0
  4  7  1  0
  6  8  1  0
  6  9  1  0
  7 10  1  0
  7 11  1  0
 12  6  1  1
 10 13  1  0
 11 14  1  0
 13 14  1  0
 12 15  1  0
 12 16  1  0
 16 17  1  6
 15 18  1  0
 16 19  1  0
 17 20  2  0
 17 21  1  0
 18 22  1  0
 19 22  1  0
 21 23  2  0
 20 24  1  0
 23 25  1  0
 23 26  1  0
 24 26  2  0
 25 27  1  0
M  END
>  <%Rank>  (185) 
73.015873

>  <N_hits>  (185) 
2

>  <submitter_name>  (185) 
nan

>  <original SMILES>  (185) 
nan

>  <∆G_unbound>  (185) 
0.96719

>  <∆G_bound>  (185) 
0.408029

>  <regarded>  (185) 
mArh-x0727_0_A,mArh-x0805_0_A

>  <ref_pdb>  (185) 
nan

>  <smiles>  (185) 
COc1cccc(C2CCOCC2C(O)(O)[C@H](C)NC(=O)C2CCCC2)c1

>  <submitter_email>  (185) 
nan

>  <disregarded>  (185) 


>  <LE>  (185) 
-0.02071

>  <submitter_institution>  (185) 
nan

>  <ref_mols>  (185) 
mArh-x0727_0_A,mArh-x0805_0_A

>  <N_constrained_atoms>  (185) 
27.0

>  <ref_url>  (185) 
nan

>  <method>  (185) 
nan

>  <comRMSD>  (185) 
0.821005

>  <N_unconstrained_atoms>  (185) 
0.0

>  <∆∆G>  (185) 
-0.55916

>  <runtime>  (185) 
37.804597

>  <generation_date>  (185) 
nan

$$$$
mArh-x0724_0_A-mArh-6ywk_E_2_E
     RDKit          3D

 34 36  0  0  0  0  0  0  0  0999 V2000
   -8.1960   13.7020    4.3720 N   0  0  0  0  0  0  0  0  0  0  0  0
   -8.6300   13.8830    5.7520 C   0  0  0  0  0  0  0  0  0  0  0  0
   -8.3570   14.9380    3.6170 C   0  0  0  0  0  0  0  0  0  0  0  0
   -7.6630   14.8250    2.2990 C   0  0  0  0  0  0  0  0  0  0  0  0
   -6.3080   14.8890    2.0200 C   0  0  0  0  0  0  0  0  0  0  0  0
   -8.2480   14.6350    1.0340 C   0  0  0  0  0  0  0  0  0  0  0  0
   -7.3520   14.5940    0.0440 N   0  0  0  0  0  0  0  0  0  0  0  0
   -6.1470   14.7610    0.6560 N   0  0  0  0  0  0  0  0  0  0  0  0
   -4.9320   14.7990   -0.0930 C   0  0  0  0  0  0  0  0  0  0  0  0
   -3.6850   14.8340    0.5430 C   0  0  0  0  0  0  0  0  0  0  0  0
   -4.9880   14.8090   -1.4940 C   0  0  0  0  0  0  0  0  0  0  0  0
   -2.5100   14.8740   -0.2220 C   0  0  0  0  0  0  0  0  0  0  0  0
   -3.8140   14.8480   -2.2530 C   0  0  0  0  0  0  0  0  0  0  0  0
   -2.5610   14.8780   -1.6270 C   0  0  0  0  0  0  0  0  0  0  0  0
   -1.2820   14.9040   -2.4530 C   0  0  0  0  0  0  0  0  0  0  0  0
   -0.8190   16.3040   -2.8290 C   0  0  0  0  0  0  0  0  0  0  0  0
    0.2680   16.4080   -3.9100 C   0  0  0  0  0  0  0  0  0  0  0  0
    0.5180   17.8880   -4.2550 C   0  0  0  0  0  0  0  0  0  0  0  0
    1.1040   18.0970   -5.6520 C   0  0  0  0  0  0  0  0  0  0  0  0
    0.0530   18.4260   -6.6220 N   0  0  0  0  0  0  0  0  0  0  0  0
    0.0590   19.7520   -7.3650 S   0  0  1  0  0  0  0  0  0  0  0  0
    1.1490   20.7060   -7.5080 O   0  0  0  0  0  0  0  0  0  0  0  0
   -0.0180   18.8700   -8.7140 O   0  0  0  0  0  0  0  0  0  0  0  0
   -1.5470   20.5550   -7.2460 C   0  0  0  0  0  0  0  0  0  0  0  0
   -1.7570   21.5600   -8.3520 C   0  0  0  0  0  0  0  0  0  0  0  0
   -2.8780   22.5500   -8.2680 N   0  0  0  0  0  0  0  0  0  0  0  0
   -3.0240   23.2070   -6.9780 C   0  0  0  0  0  0  0  0  0  0  0  0
   -4.1750   22.0060   -8.6570 C   0  0  0  0  0  0  0  0  0  0  0  0
   -4.3010   24.0080   -6.6760 C   0  0  0  0  0  0  0  0  0  0  0  0
   -5.2260   21.9630   -7.5240 C   0  0  0  0  0  0  0  0  0  0  0  0
   -5.5450   23.2960   -7.0250 N   0  0  0  0  0  0  0  0  0  0  0  0
   -6.2140   24.1270   -8.0490 C   0  0  0  0  0  0  0  0  0  0  0  0
   -6.4690   23.4630   -9.3980 C   0  0  0  0  0  0  0  0  0  0  0  0
   -7.4350   22.4230   -9.2750 O   0  0  0  0  0  0  0  0  0  0  0  0
  1  2  1  0
  1  3  1  0
  3  4  1  0
  4  5  2  0
  4  6  1  0
  6  7  2  0
  5  8  1  0
  7  8  1  0
  8  9  1  0
  9 10  2  0
  9 11  1  0
 10 12  1  0
 11 13  2  0
 12 14  2  0
 13 14  1  0
 14 15  1  0
 15 16  1  0
 16 17  1  0
 17 18  1  0
 18 19  1  0
 19 20  1  0
 20 21  2  0
 21 22  2  0
 21 23  1  6
 21 24  1  0
 24 25  1  0
 25 26  1  0
 26 27  1  0
 26 28  1  0
 27 29  1  0
 28 30  1  0
 29 31  1  0
 30 31  1  0
 31 32  1  0
 32 33  1  0
 33 34  1  0
M  END
>  <%Rank>  (186) 
73.412698

>  <N_hits>  (186) 
2

>  <submitter_name>  (186) 
nan

>  <original SMILES>  (186) 
nan

>  <∆G_unbound>  (186) 
0.255919

>  <∆G_bound>  (186) 
-16.590243

>  <regarded>  (186) 
mArh-x0724_0_A,mArh-6ywk_E_2_E

>  <ref_pdb>  (186) 
nan

>  <smiles>  (186) 
CNCc1cnn(-c2ccc(CCCCCN=S(=O)(O)CCN3CCN(CCO)CC3)cc2)c1

>  <submitter_email>  (186) 
nan

>  <disregarded>  (186) 


>  <LE>  (186) 
-0.495475

>  <submitter_institution>  (186) 
nan

>  <ref_mols>  (186) 
mArh-x0724_0_A,mArh-6ywk_E_2_E

>  <N_constrained_atoms>  (186) 
29.0

>  <ref_url>  (186) 
nan

>  <method>  (186) 
nan

>  <comRMSD>  (186) 
1.002817

>  <N_unconstrained_atoms>  (186) 
5.0

>  <∆∆G>  (186) 
-16.846162

>  <runtime>  (186) 
108.714995

>  <generation_date>  (186) 
nan

$$$$
mArh-mac-242_0_A-mArh-x0910_0_A
     RDKit          3D

 16 18  0  0  0  0  0  0  0  0999 V2000
   -3.8530   14.6780    2.0860 N   0  0  0  0  0  0  0  0  0  0  0  0
   -2.7010   14.5290    1.3360 C   0  0  0  0  0  0  0  0  0  0  0  0
   -1.5750   14.4160    2.0310 N   0  0  0  0  0  0  0  0  0  0  0  0
   -2.7630   14.5100   -0.0310 C   0  0  0  0  0  0  0  0  0  0  0  0
   -1.5240   14.3880   -0.6890 C   0  0  0  0  0  0  0  0  0  0  0  0
   -0.3920   14.2840    1.4280 C   0  0  0  0  0  0  0  0  0  0  0  0
   -4.1110   14.6070   -0.7740 C   0  0  2  0  0  0  0  0  0  0  0  0
   -0.1920   14.2560    0.0660 C   0  0  0  0  0  0  0  0  0  0  0  0
   -1.4850   14.3900   -2.1290 C   0  0  0  0  0  0  0  0  0  0  0  0
   -4.1070   14.0760   -2.2130 C   0  0  0  0  0  0  0  0  0  0  0  0
   -4.7690   15.9330   -0.7990 N   0  0  0  0  0  0  0  0  0  0  0  0
   -5.1230   13.8180    0.0040 N   0  0  0  0  0  0  0  0  0  0  0  0
   -2.7780   14.2510   -2.9260 C   0  0  0  0  0  0  0  0  0  0  0  0
   -6.1760   14.6900    0.4090 C   0  0  1  0  0  0  0  0  0  0  0  0
   -6.1900   15.6230   -0.6710 N   0  0  0  0  0  0  0  0  0  0  0  0
   -7.4230   13.9960    0.4660 N   0  0  0  0  0  0  0  0  0  0  0  0
  1  2  1  0
  2  3  2  0
  2  4  1  0
  4  5  2  0
  3  6  1  0
  4  7  1  0
  5  8  1  0
  6  8  2  0
  5  9  1  0
  7 10  1  6
  7 11  1  0
  7 12  1  0
  9 13  2  0
 10 13  1  0
 12 14  1  0
 11 15  1  0
 14 15  1  0
 14 16  1  6
M  END
>  <%Rank>  (187) 
73.809524

>  <N_hits>  (187) 
2

>  <submitter_name>  (187) 
nan

>  <original SMILES>  (187) 
nan

>  <∆G_unbound>  (187) 
0.580358

>  <∆G_bound>  (187) 
-4.929595

>  <regarded>  (187) 
mArh-mac-242_0_A,mArh-x0910_0_A

>  <ref_pdb>  (187) 
nan

>  <smiles>  (187) 
Nc1nccc2c1C1(CC=C2)NNC(N)N1

>  <submitter_email>  (187) 
nan

>  <disregarded>  (187) 


>  <LE>  (187) 
-0.344372

>  <submitter_institution>  (187) 
nan

>  <ref_mols>  (187) 
mArh-mac-242_0_A,mArh-x0910_0_A

>  <N_constrained_atoms>  (187) 
16.0

>  <ref_url>  (187) 
nan

>  <method>  (187) 
nan

>  <comRMSD>  (187) 
0.793047

>  <N_unconstrained_atoms>  (187) 
0.0

>  <∆∆G>  (187) 
-5.509953

>  <runtime>  (187) 
15.989836

>  <generation_date>  (187) 
nan

$$$$
mArh-x0855_0_A-mArh-5cms_J_9_J
     RDKit          3D

 45 49  0  0  0  0  0  0  0  0999 V2000
    2.2670   12.6260   -2.9380 O   0  0  0  0  0  0  0  0  0  0  0  0
    1.2580   11.9690   -3.5380 C   0  0  0  0  0  0  0  0  0  0  0  0
    0.7340   12.5880   -4.8060 C   0  0  1  0  0  0  0  0  0  0  0  0
    0.8110   10.9610   -3.0130 O   0  0  0  0  0  0  0  0  0  0  0  0
   -0.2550   11.6320   -5.3140 N   0  0  0  0  0  0  0  0  0  0  0  0
    0.0720   13.8170   -4.2660 C   0  0  1  0  0  0  0  0  0  0  0  0
   -0.1450   10.7600   -6.3540 C   0  0  0  0  0  0  0  0  0  0  0  0
   -1.4600   11.5550   -4.6950 N   0  0  0  0  0  0  0  0  0  0  0  0
    0.4310   15.3180   -4.3190 C   0  0  1  0  0  0  0  0  0  0  0  0
   -1.3870   13.7390   -4.0110 C   0  0  2  0  0  0  0  0  0  0  0  0
   -0.0240   16.2370   -5.4240 C   0  0  0  0  0  0  0  0  0  0  0  0
   -2.1720   14.2280   -5.0840 O   0  0  0  0  0  0  0  0  0  0  0  0
   -1.3420   10.0880   -6.3920 C   0  0  0  0  0  0  0  0  0  0  0  0
   -2.1170   10.6120   -5.3590 C   0  0  0  0  0  0  0  0  0  0  0  0
   -0.3540   15.7310   -3.1940 O   0  0  0  0  0  0  0  0  0  0  0  0
   -1.1280   14.5720   -2.7910 C   0  0  1  0  0  0  0  0  0  0  0  0
   -1.8810    8.7430   -7.5570 Br  0  0  0  0  0  0  0  0  0  0  0  0
   -0.4450   17.5170   -4.9990 O   0  0  0  0  0  0  0  0  0  0  0  0
   -2.1120   14.8400   -1.8380 N   0  0  0  0  0  0  0  0  0  0  0  0
   -1.5940   18.2340   -5.8700 P   0  0  1  0  0  0  0  0  0  0  0  0
   -1.8660   14.7770   -0.5320 C   0  0  0  0  0  0  0  0  0  0  0  0
   -3.4190   15.1940   -2.0320 C   0  0  0  0  0  0  0  0  0  0  0  0
   -2.4020   17.3840   -6.7860 O   0  0  0  0  0  0  0  0  0  0  0  0
   -2.4140   19.0100   -4.7750 O   0  0  0  0  0  0  0  0  0  0  0  0
   -0.9730   19.5250   -6.4950 O   0  0  0  0  0  0  0  0  0  0  0  0
   -3.0560   15.1110    0.0600 C   0  0  0  0  0  0  0  0  0  0  0  0
   -0.6900   14.4590    0.0330 N   0  0  0  0  0  0  0  0  0  0  0  0
   -4.0310   15.3680   -0.8830 N   0  0  0  0  0  0  0  0  0  0  0  0
   -0.0850   19.4840   -7.7560 P   0  0  1  0  0  0  0  0  0  0  0  0
   -3.0450   15.1270    1.4410 C   0  0  0  0  0  0  0  0  0  0  0  0
   -0.7960   14.4930    1.3610 C   0  0  0  0  0  0  0  0  0  0  0  0
    0.9800   18.4980   -7.6180 O   0  0  0  0  0  0  0  0  0  0  0  0
   -1.0980   19.2430   -8.9200 O   0  0  0  0  0  0  0  0  0  0  0  0
    0.3050   21.0010   -7.9180 O   0  0  0  0  0  0  0  0  0  0  0  0
   -4.1610   15.4690    2.1790 N   0  0  0  0  0  0  0  0  0  0  0  0
   -1.8920   14.8000    2.0770 N   0  0  0  0  0  0  0  0  0  0  0  0
   -0.6450   21.8630   -7.3600 C   0  0  0  0  0  0  0  0  0  0  0  0
   -1.7200   22.1410   -8.3480 C   0  0  2  0  0  0  0  0  0  0  0  0
   -2.4970   23.4080   -8.1010 C   0  0  1  0  0  0  0  0  0  0  0  0
   -2.6790   21.1580   -8.6380 O   0  0  0  0  0  0  0  0  0  0  0  0
   -1.8540   24.5370   -8.4390 O   0  0  0  0  0  0  0  0  0  0  0  0
   -3.6610   21.8670   -9.4070 C   0  0  2  0  0  0  0  0  0  0  0  0
   -3.7430   23.2750   -8.9360 C   0  0  2  0  0  0  0  0  0  0  0  0
   -4.8790   21.3800   -9.0250 O   0  0  0  0  0  0  0  0  0  0  0  0
   -4.0160   24.2260   -9.9480 O   0  0  0  0  0  0  0  0  0  0  0  0
  1  2  1  0
  3  2  1  1
  2  4  2  0
  3  5  1  0
  6  3  1  6
  5  7  1  0
  5  8  1  0
  6  9  1  0
  6 10  1  0
  9 11  1  6
 10 12  1  6
  7 13  2  0
  8 14  2  0
 13 14  1  0
  9 15  1  0
 10 16  1  0
 15 16  1  0
 13 17  1  0
 11 18  1  0
 16 19  1  6
 18 20  1  0
 19 21  1  0
 19 22  1  0
 20 23  2  0
 20 24  1  1
 20 25  1  0
 21 26  2  0
 21 27  1  0
 22 28  2  0
 26 28  1  0
 25 29  1  0
 26 30  1  0
 27 31  2  0
 29 32  2  0
 29 33  1  6
 29 34  1  0
 30 35  1  0
 30 36  2  0
 31 36  1  0
 34 37  1  0
 38 37  1  1
 38 39  1  0
 38 40  1  0
 39 41  1  6
 40 42  1  0
 39 43  1  0
 42 43  1  0
 42 44  1  1
 43 45  1  6
M  END
>  <%Rank>  (188) 
74.206349

>  <N_hits>  (188) 
2

>  <submitter_name>  (188) 
nan

>  <original SMILES>  (188) 
nan

>  <∆G_unbound>  (188) 
10.116838

>  <∆G_bound>  (188) 
-3.337133

>  <regarded>  (188) 
mArh-x0855_0_A,mArh-5cms_J_9_J

>  <ref_pdb>  (188) 
nan

>  <smiles>  (188) 
Nc1ncnc2c1ncn2C1OC(CO[P@@](=O)(O)O[P@@](=O)(O)OCC2OC(O)C(O)C2O)C(C(C(=O)O)n2cc(Br)cn2)C1O

>  <submitter_email>  (188) 
nan

>  <disregarded>  (188) 


>  <LE>  (188) 
-0.298977

>  <submitter_institution>  (188) 
nan

>  <ref_mols>  (188) 
mArh-x0855_0_A,mArh-5cms_J_9_J

>  <N_constrained_atoms>  (188) 
45.0

>  <ref_url>  (188) 
nan

>  <method>  (188) 
nan

>  <comRMSD>  (188) 
1.144331

>  <N_unconstrained_atoms>  (188) 
0.0

>  <∆∆G>  (188) 
-13.45397

>  <runtime>  (188) 
45.167835

>  <generation_date>  (188) 
nan

$$$$
mArh-3vfq_B_0_A-mArh-x0465_0_A
     RDKit          3D

 51 55  0  0  0  0  0  0  0  0999 V2000
   -3.8230   15.9110   -6.2940 P   0  0  2  0  0  0  0  0  0  0  0  0
   -2.5680   15.4200   -5.4890 O   0  0  0  0  0  0  0  0  0  0  0  0
   -2.5620   15.7890   -4.1540 C   0  0  0  0  0  0  0  0  0  0  0  0
   -5.1520   15.5290   -5.7720 O   0  0  0  0  0  0  0  0  0  0  0  0
   -3.7420   15.1090   -7.6510 O   0  0  0  0  0  0  0  0  0  0  0  0
   -3.5290   17.4280   -6.7440 O   0  0  0  0  0  0  0  0  0  0  0  0
   -2.3230   18.4150   -6.4420 P   0  0  1  0  0  0  0  0  0  0  0  0
   -1.8120   18.4840   -5.0520 O   0  0  0  0  0  0  0  0  0  0  0  0
   -1.2500   17.8890   -7.4430 O   0  0  0  0  0  0  0  0  0  0  0  0
   -2.7520   19.7960   -7.1470 O   0  0  0  0  0  0  0  0  0  0  0  0
   -3.7320   15.1480   -3.4900 C   0  0  2  0  0  0  0  0  0  0  0  0
   -4.0850   20.2310   -6.9440 C   0  0  0  0  0  0  0  0  0  0  0  0
   -3.7620   15.5310   -2.0870 O   0  0  0  0  0  0  0  0  0  0  0  0
   -3.7460   13.6390   -3.5060 C   0  0  1  0  0  0  0  0  0  0  0  0
   -2.4360   13.0610   -3.7240 O   0  0  0  0  0  0  0  0  0  0  0  0
   -4.0540   13.2920   -2.2410 C   0  0  1  0  0  0  0  0  0  0  0  0
   -4.0160   14.3260   -1.3440 C   0  0  2  0  0  0  0  0  0  0  0  0
   -4.4620   21.5010   -7.7080 C   0  0  2  0  0  0  0  0  0  0  0  0
   -5.2320   12.4790   -2.2940 O   0  0  0  0  0  0  0  0  0  0  0  0
   -1.8250   13.2680   -5.0060 C   0  0  0  0  0  0  0  0  0  0  0  0
   -5.9520   21.6970   -7.8280 C   0  0  1  0  0  0  0  0  0  0  0  0
   -3.9320   21.5330   -9.0380 O   0  0  0  0  0  0  0  0  0  0  0  0
   -5.0340   14.5180   -0.3850 N   0  0  0  0  0  0  0  0  0  0  0  0
   -6.2460   22.8350   -7.0250 O   0  0  0  0  0  0  0  0  0  0  0  0
   -0.2920   13.6400   -4.8810 C   0  0  0  0  0  0  0  0  0  0  0  0
   -4.7900   22.4250   -9.7560 C   0  0  1  0  0  0  0  0  0  0  0  0
   -6.2100   22.0640   -9.3060 C   0  0  2  0  0  0  0  0  0  0  0  0
   -4.8380   14.6620    0.9340 C   0  0  0  0  0  0  0  0  0  0  0  0
   -6.3760   14.5940   -0.6240 C   0  0  0  0  0  0  0  0  0  0  0  0
   -4.4470   23.7600   -9.4200 O   0  0  0  0  0  0  0  0  0  0  0  0
   -7.1530   23.1200   -9.4410 O   0  0  0  0  0  0  0  0  0  0  0  0
    0.7690   12.4950   -4.6490 C   0  0  2  0  0  0  0  0  0  0  0  0
   -6.0930   14.8260    1.4710 C   0  0  0  0  0  0  0  0  0  0  0  0
   -3.6790   14.6490    1.5710 N   0  0  0  0  0  0  0  0  0  0  0  0
   -7.0530   14.7800    0.4860 N   0  0  0  0  0  0  0  0  0  0  0  0
    2.1320   13.1530   -4.9230 C   0  0  0  0  0  0  0  0  0  0  0  0
    0.5280   11.4660   -5.6190 O   0  0  0  0  0  0  0  0  0  0  0  0
    0.7490   12.1160   -3.1520 C   0  0  0  0  0  0  0  0  0  0  0  0
   -6.1640   15.0090    2.8570 C   0  0  0  0  0  0  0  0  0  0  0  0
   -3.9100   14.8290    2.8650 C   0  0  0  0  0  0  0  0  0  0  0  0
   -7.3370   15.2030    3.5640 N   0  0  0  0  0  0  0  0  0  0  0  0
    0.9530   12.8840   -2.2240 O   0  0  0  0  0  0  0  0  0  0  0  0
    0.4980   10.8160   -2.9030 O   0  0  0  0  0  0  0  0  0  0  0  0
   -5.0370   15.0050    3.5420 N   0  0  0  0  0  0  0  0  0  0  0  0
   -0.6280   10.7740   -5.8300 C   0  0  0  0  0  0  0  0  0  0  0  0
   -0.5560    9.7220   -6.7600 C   0  0  0  0  0  0  0  0  0  0  0  0
   -1.8520   11.0020   -5.2280 C   0  0  0  0  0  0  0  0  0  0  0  0
    0.5880    9.4370   -7.3930 F   0  0  0  0  0  0  0  0  0  0  0  0
   -1.6590    8.9380   -7.0660 C   0  0  0  0  0  0  0  0  0  0  0  0
   -2.9680   10.2180   -5.5380 C   0  0  0  0  0  0  0  0  0  0  0  0
   -2.8740    9.1860   -6.4520 C   0  0  0  0  0  0  0  0  0  0  0  0
  1  2  1  0
  2  3  1  0
  1  4  2  0
  1  5  1  6
  1  6  1  0
  6  7  1  0
  7  8  2  0
  7  9  1  6
  7 10  1  0
 11  3  1  1
 10 12  1  0
 11 13  1  0
 11 14  1  0
 14 15  1  1
 14 16  1  0
 13 17  1  0
 16 17  1  0
 18 12  1  6
 16 19  1  6
 15 20  1  0
 18 21  1  0
 18 22  1  0
 17 23  1  6
 21 24  1  1
 20 25  1  0
 22 26  1  0
 21 27  1  0
 26 27  1  0
 23 28  1  0
 23 29  1  0
 26 30  1  1
 27 31  1  1
 25 32  1  0
 28 33  2  0
 28 34  1  0
 29 35  2  0
 33 35  1  0
 32 36  1  6
 32 37  1  0
 32 38  1  0
 33 39  1  0
 34 40  2  0
 39 41  1  0
 38 42  2  0
 38 43  1  0
 39 44  2  0
 40 44  1  0
 37 45  1  0
 45 46  2  0
 45 47  1  0
 46 48  1  0
 46 49  1  0
 47 50  2  0
 49 51  2  0
 50 51  1  0
M  END
>  <%Rank>  (189) 
74.603175

>  <N_hits>  (189) 
2

>  <submitter_name>  (189) 
nan

>  <original SMILES>  (189) 
nan

>  <∆G_unbound>  (189) 
8.548143

>  <∆G_bound>  (189) 
0.705111

>  <regarded>  (189) 
mArh-3vfq_B_0_A,mArh-x0465_0_A

>  <ref_pdb>  (189) 
nan

>  <smiles>  (189) 
C[C@@](CCOC1C(CO[P@](=O)(O)O[P@@](=O)(O)OCC2OC(O)C(O)C2O)OC(n2cnc3c(N)ncnc32)C1O)(Oc1ccccc1F)C(=O)O

>  <submitter_email>  (189) 
nan

>  <disregarded>  (189) 


>  <LE>  (189) 
-0.153785

>  <submitter_institution>  (189) 
nan

>  <ref_mols>  (189) 
mArh-3vfq_B_0_A,mArh-x0465_0_A

>  <N_constrained_atoms>  (189) 
49.0

>  <ref_url>  (189) 
nan

>  <method>  (189) 
nan

>  <comRMSD>  (189) 
1.092544

>  <N_unconstrained_atoms>  (189) 
2.0

>  <∆∆G>  (189) 
-7.843032

>  <runtime>  (189) 
49.521493

>  <generation_date>  (189) 
nan

$$$$
mArh-5cms_K_10_K-mArh-4j4z_0_A
     RDKit          3D

 46 50  0  0  0  0  0  0  0  0999 V2000
   -1.6110   18.5040   -6.2780 P   0  0  1  0  0  0  0  0  0  0  0  0
   -0.9520   17.2100   -5.2350 C   0  0  1  0  0  0  0  0  0  0  0  0
    0.5120   16.7030   -5.2610 C   0  0  0  0  0  0  0  0  0  0  0  0
   -2.5020   18.0490   -7.3470 O   0  0  0  0  0  0  0  0  0  0  0  0
   -2.4810   19.3630   -5.2360 O   0  0  0  0  0  0  0  0  0  0  0  0
   -0.5770   19.6460   -6.5570 O   0  0  0  0  0  0  0  0  0  0  0  0
    0.0030   20.2910   -7.8500 P   0  0  1  0  0  0  0  0  0  0  0  0
   -1.0370   17.9660   -4.0730 O   0  0  0  0  0  0  0  0  0  0  0  0
   -1.9870   16.0620   -5.1580 C   0  0  0  0  0  0  0  0  0  0  0  0
    1.3260   20.9320   -7.6360 O   0  0  0  0  0  0  0  0  0  0  0  0
   -0.0130   19.0040   -8.8460 O   0  0  0  0  0  0  0  0  0  0  0  0
   -0.9970   21.4810   -8.3410 O   0  0  0  0  0  0  0  0  0  0  0  0
    0.8620   15.4370   -4.4320 C   0  0  1  0  0  0  0  0  0  0  0  0
   -2.1880   21.0590   -8.8620 C   0  0  0  0  0  0  0  0  0  0  0  0
    0.2240   15.4870   -3.1450 O   0  0  0  0  0  0  0  0  0  0  0  0
    0.4320   14.0670   -5.0110 C   0  0  1  0  0  0  0  0  0  0  0  0
    1.3900   13.0200   -4.8520 O   0  0  0  0  0  0  0  0  0  0  0  0
   -0.9230   13.7550   -4.3110 C   0  0  2  0  0  0  0  0  0  0  0  0
   -1.0890   14.9610   -3.3820 C   0  0  1  0  0  0  0  0  0  0  0  0
   -3.3200   21.9580   -9.4130 C   0  0  1  0  0  0  0  0  0  0  0  0
   -3.4020   23.4490   -9.1740 C   0  0  1  0  0  0  0  0  0  0  0  0
   -3.4720   21.7730  -10.8200 O   0  0  0  0  0  0  0  0  0  0  0  0
   -1.9790   14.9680   -2.2200 N   0  0  0  0  0  0  0  0  0  0  0  0
   -1.1460   12.4850   -3.6410 N   0  0  0  0  0  0  0  0  0  0  0  0
   -2.1190   24.0420   -9.0430 O   0  0  0  0  0  0  0  0  0  0  0  0
   -4.4280   22.7240  -11.2900 C   0  0  2  0  0  0  0  0  0  0  0  0
   -4.2160   23.9600  -10.4140 C   0  0  2  0  0  0  0  0  0  0  0  0
   -1.6820   14.8430   -0.8660 C   0  0  0  0  0  0  0  0  0  0  0  0
   -3.3380   15.1390   -2.3080 C   0  0  0  0  0  0  0  0  0  0  0  0
   -2.5820   12.2400   -3.4170 C   0  0  0  0  0  0  0  0  0  0  0  0
   -0.5080   11.3360   -4.2810 C   0  0  0  0  0  0  0  0  0  0  0  0
   -5.7450   22.2180  -11.2160 O   0  0  0  0  0  0  0  0  0  0  0  0
   -3.6910   25.0350  -11.1840 O   0  0  0  0  0  0  0  0  0  0  0  0
   -2.9220   14.9800   -0.2390 C   0  0  0  0  0  0  0  0  0  0  0  0
   -0.5020   14.6540   -0.2420 N   0  0  0  0  0  0  0  0  0  0  0  0
   -3.9310   15.1520   -1.1440 N   0  0  0  0  0  0  0  0  0  0  0  0
   -3.1940   11.3320   -4.4880 C   0  0  0  0  0  0  0  0  0  0  0  0
   -1.2430   10.0330   -3.9370 C   0  0  0  0  0  0  0  0  0  0  0  0
   -2.9570   14.9350    1.1530 C   0  0  0  0  0  0  0  0  0  0  0  0
   -0.6610   14.6110    1.1030 C   0  0  0  0  0  0  0  0  0  0  0  0
   -2.6640    9.9730   -4.3810 N   0  0  0  0  0  0  0  0  0  0  0  0
   -4.1360   15.0990    1.8330 N   0  0  0  0  0  0  0  0  0  0  0  0
   -3.5610    9.2740   -3.4460 C   0  0  0  0  0  0  0  0  0  0  0  0
   -1.8030   14.7380    1.8260 N   0  0  0  0  0  0  0  0  0  0  0  0
   -3.7810    7.8100   -3.7980 C   0  0  0  0  0  0  0  0  0  0  0  0
   -3.7760    7.0900   -2.5700 O   0  0  0  0  0  0  0  0  0  0  0  0
  1  2  1  0
  2  3  1  0
  1  4  2  0
  1  5  1  1
  1  6  1  0
  6  7  1  0
  2  8  1  0
  2  9  1  1
  7 10  2  0
  7 11  1  6
  7 12  1  0
 13  3  1  6
 12 14  1  0
 13 15  1  0
 13 16  1  0
 16 17  1  1
 16 18  1  0
 15 19  1  0
 18 19  1  0
 20 14  1  6
 20 21  1  0
 20 22  1  0
 19 23  1  1
 18 24  1  1
 21 25  1  6
 22 26  1  0
 21 27  1  0
 26 27  1  0
 23 28  1  0
 23 29  1  0
 24 30  1  0
 24 31  1  0
 26 32  1  1
 27 33  1  6
 28 34  2  0
 28 35  1  0
 29 36  2  0
 34 36  1  0
 30 37  1  0
 31 38  1  0
 34 39  1  0
 35 40  2  0
 37 41  1  0
 38 41  1  0
 39 42  1  0
 41 43  1  0
 39 44  2  0
 40 44  1  0
 43 45  1  0
 45 46  1  0
M  END
>  <%Rank>  (190) 
75.0

>  <N_hits>  (190) 
2

>  <submitter_name>  (190) 
nan

>  <original SMILES>  (190) 
nan

>  <∆G_unbound>  (190) 
7.478991

>  <∆G_bound>  (190) 
-8.963555

>  <regarded>  (190) 
mArh-5cms_K_10_K,mArh-4j4z_0_A

>  <ref_pdb>  (190) 
nan

>  <smiles>  (190) 
CC(O)(CC1OC(n2cnc3c(N)ncnc32)C(N2CCN(CCO)CC2)C1O)[P@@](=O)(O)O[P@@](=O)(O)OCC1OC(O)C(O)C1O

>  <submitter_email>  (190) 
nan

>  <disregarded>  (190) 


>  <LE>  (190) 
-0.357447

>  <submitter_institution>  (190) 
nan

>  <ref_mols>  (190) 
mArh-5cms_K_10_K,mArh-4j4z_0_A

>  <N_constrained_atoms>  (190) 
46.0

>  <ref_url>  (190) 
nan

>  <method>  (190) 
nan

>  <comRMSD>  (190) 
1.197154

>  <N_unconstrained_atoms>  (190) 
0.0

>  <∆∆G>  (190) 
-16.442546

>  <runtime>  (190) 
57.247113

>  <generation_date>  (190) 
nan

$$$$
mArh-x0662_0_A-mArh-x0864_0_A
     RDKit          3D

 28 30  0  0  0  0  0  0  0  0999 V2000
    5.4860    9.5830  -15.1920 C   0  0  0  0  0  0  0  0  0  0  0  0
    4.4430   10.0160  -14.2970 N   0  0  0  0  0  0  0  0  0  0  0  0
    3.7970   11.2230  -14.3070 C   0  0  0  0  0  0  0  0  0  0  0  0
    4.0140    9.1600  -13.3020 N   0  0  0  0  0  0  0  0  0  0  0  0
    2.9110   11.1090  -13.2460 C   0  0  0  0  0  0  0  0  0  0  0  0
    3.0580    9.8570  -12.6530 C   0  0  0  0  0  0  0  0  0  0  0  0
    2.3430    9.3000  -11.5040 C   0  0  0  0  0  0  0  0  0  0  0  0
    2.6540    8.2280  -10.9960 O   0  0  0  0  0  0  0  0  0  0  0  0
    1.3320   10.1270  -11.1100 N   0  0  0  0  0  0  0  0  0  0  0  0
    0.7630   10.1880   -9.8520 C   0  0  0  0  0  0  0  0  0  0  0  0
   -0.4620    9.5670   -9.7470 C   0  0  0  0  0  0  0  0  0  0  0  0
    1.4190   10.8260   -8.8550 C   0  0  0  0  0  0  0  0  0  0  0  0
   -1.1770    9.5710   -8.4460 C   0  0  0  0  0  0  0  0  0  0  0  0
    0.8250   10.9110   -7.4720 C   0  0  0  0  0  0  0  0  0  0  0  0
    1.6270   11.6400   -6.4000 C   0  0  0  0  0  0  0  0  0  0  0  0
   -0.4390   10.2880   -7.3270 C   0  0  0  0  0  0  0  0  0  0  0  0
    0.8860   11.8530   -5.1900 N   0  0  0  0  0  0  0  0  0  0  0  0
   -0.2940   11.2020   -5.3510 C   0  0  0  0  0  0  0  0  0  0  0  0
    1.5730   11.3660   -3.9610 C   0  0  0  0  0  0  0  0  0  0  0  0
   -1.4660   11.8890   -4.9170 N   0  0  0  0  0  0  0  0  0  0  0  0
   -0.3370    9.7970   -5.9760 C   0  0  0  0  0  0  0  0  0  0  0  0
    0.9620   11.7990   -2.7770 C   0  0  0  0  0  0  0  0  0  0  0  0
   -2.6200   11.2570   -5.0750 C   0  0  0  0  0  0  0  0  0  0  0  0
   -1.6320    9.3020   -6.0620 C   0  0  0  0  0  0  0  0  0  0  0  0
    0.1260   10.8450   -2.2610 O   0  0  0  0  0  0  0  0  0  0  0  0
    1.1440   12.8880   -2.2500 O   0  0  0  0  0  0  0  0  0  0  0  0
   -1.9070    7.5860   -6.8120 Br  0  0  0  0  0  0  0  0  0  0  0  0
   -2.7560   10.0310   -5.6130 C   0  0  0  0  0  0  0  0  0  0  0  0
  1  2  1  0
  2  3  1  0
  2  4  1  0
  3  5  2  0
  4  6  2  0
  5  6  1  0
  6  7  1  0
  7  8  2  0
  7  9  1  0
  9 10  1  0
 10 11  2  0
 10 12  1  0
 11 13  1  0
 12 14  2  0
 14 15  1  0
 13 16  2  0
 14 16  1  0
 15 17  1  0
 17 18  1  0
 17 19  1  0
 18 20  2  0
 18 21  1  0
 19 22  1  0
 20 23  1  0
 21 24  2  0
 22 25  1  0
 22 26  2  0
 24 27  1  0
 23 28  2  0
 24 28  1  0
M  END
>  <%Rank>  (191) 
75.396825

>  <N_hits>  (191) 
2

>  <submitter_name>  (191) 
nan

>  <original SMILES>  (191) 
nan

>  <∆G_unbound>  (191) 
1.537235

>  <∆G_bound>  (191) 
-0.110575

>  <regarded>  (191) 
mArh-x0662_0_A,mArh-x0864_0_A

>  <ref_pdb>  (191) 
nan

>  <smiles>  (191) 
Cn1ccc(C(=O)Nc2cccc(CN(CC(=O)O)c3cc(Br)ccn3)c2)n1

>  <submitter_email>  (191) 
nan

>  <disregarded>  (191) 


>  <LE>  (191) 
-0.05885

>  <submitter_institution>  (191) 
nan

>  <ref_mols>  (191) 
mArh-x0662_0_A,mArh-x0864_0_A

>  <N_constrained_atoms>  (191) 
27.0

>  <ref_url>  (191) 
nan

>  <method>  (191) 
nan

>  <comRMSD>  (191) 
0.848815

>  <N_unconstrained_atoms>  (191) 
1.0

>  <∆∆G>  (191) 
-1.64781

>  <runtime>  (191) 
38.235165

>  <generation_date>  (191) 
nan

$$$$
mArh-x0837_0_A-mArh-x0592_0_A
     RDKit          3D

 11 11  0  0  0  0  0  0  0  0999 V2000
   -7.5110   14.3620    0.7190 N   0  0  0  0  0  0  0  0  0  0  0  0
   -8.0160   14.2880    2.0880 C   0  0  0  0  0  0  0  0  0  0  0  0
   -7.3370   15.1180    3.0280 O   0  0  0  0  0  0  0  0  0  0  0  0
   -6.2640   14.6390    0.6080 C   0  0  0  0  0  0  0  0  0  0  0  0
   -5.4390   14.8720    1.6650 N   0  0  0  0  0  0  0  0  0  0  0  0
   -5.6640   14.7040   -0.7930 C   0  0  0  0  0  0  0  0  0  0  0  0
   -4.0500   14.5690    1.5500 C   0  0  0  0  0  0  0  0  0  0  0  0
   -4.2860   15.3760   -0.8590 C   0  0  2  0  0  0  0  0  0  0  0  0
   -3.1590   14.5910   -2.5400 I   0  0  0  0  0  0  0  0  0  0  0  0
   -3.4150   15.3770    0.4370 C   0  0  2  0  0  0  0  0  0  0  0  0
   -2.0580   14.8460    0.2630 N   0  0  0  0  0  0  0  0  0  0  0  0
  1  2  1  0
  2  3  1  0
  1  4  2  3
  4  5  1  0
  4  6  1  0
  5  7  1  0
  6  8  1  0
  8  9  1  6
  7 10  1  0
  8 10  1  0
 10 11  1  6
M  END
>  <%Rank>  (192) 
75.793651

>  <N_hits>  (192) 
2

>  <submitter_name>  (192) 
nan

>  <original SMILES>  (192) 
nan

>  <∆G_unbound>  (192) 
0.440342

>  <∆G_bound>  (192) 
-4.231584

>  <regarded>  (192) 
mArh-x0837_0_A,mArh-x0592_0_A

>  <ref_pdb>  (192) 
nan

>  <smiles>  (192) 
NC1CNC(=NCO)CC1I

>  <submitter_email>  (192) 
nan

>  <disregarded>  (192) 


>  <LE>  (192) 
-0.424721

>  <submitter_institution>  (192) 
nan

>  <ref_mols>  (192) 
mArh-x0837_0_A,mArh-x0592_0_A

>  <N_constrained_atoms>  (192) 
11.0

>  <ref_url>  (192) 
nan

>  <method>  (192) 
nan

>  <comRMSD>  (192) 
0.723539

>  <N_unconstrained_atoms>  (192) 
0.0

>  <∆∆G>  (192) 
-4.671926

>  <runtime>  (192) 
15.265371

>  <generation_date>  (192) 
nan

$$$$
mArh-5cms_N_13_N-mArh-5cb5_K_0_K
     RDKit          3D

 44 49  0  0  0  0  0  0  0  0999 V2000
   -1.8360   18.0370   -6.0260 P   0  0  2  0  0  0  0  0  0  0  0  0
   -0.4060   17.4860   -6.4540 O   0  0  0  0  0  0  0  0  0  0  0  0
    0.5800   16.9220   -5.6120 C   0  0  0  0  0  0  0  0  0  0  0  0
   -1.9220   18.8660   -4.8320 O   0  0  0  0  0  0  0  0  0  0  0  0
   -2.7760   16.7690   -5.8320 O   0  0  0  0  0  0  0  0  0  0  0  0
   -2.3810   18.7880   -7.2600 O   0  0  0  0  0  0  0  0  0  0  0  0
   -1.3830   19.8350   -7.8730 P   0  0  1  0  0  0  0  0  0  0  0  0
   -0.3930   20.4530   -6.9760 O   0  0  0  0  0  0  0  0  0  0  0  0
   -0.5040   18.8070   -8.7510 O   0  0  0  0  0  0  0  0  0  0  0  0
   -2.0590   20.8180   -9.0770 O   0  0  0  0  0  0  0  0  0  0  0  0
    0.0530   15.7010   -4.8890 C   0  0  2  0  0  0  0  0  0  0  0  0
   -3.3340   21.5610   -9.1580 C   0  0  2  0  0  0  0  0  0  0  0  0
    0.6620   15.6640   -3.6010 O   0  0  0  0  0  0  0  0  0  0  0  0
    0.1380   14.2530   -5.4800 C   0  0  1  0  0  0  0  0  0  0  0  0
    1.2900   13.8680   -6.2130 O   0  0  0  0  0  0  0  0  0  0  0  0
    0.2390   13.3960   -4.2250 C   0  0  0  0  0  0  0  0  0  0  0  0
    0.2380   14.4000   -3.0890 C   0  0  2  0  0  0  0  0  0  0  0  0
   -4.0130   22.3210  -10.3450 C   0  0  1  0  0  0  0  0  0  0  0  0
   -3.8380   22.1730   -7.9880 C   0  0  2  0  0  0  0  0  0  0  0  0
    1.4080   12.6210   -4.4120 O   0  0  0  0  0  0  0  0  0  0  0  0
   -0.8320   12.4840   -4.1250 O   0  0  0  0  0  0  0  0  0  0  0  0
   -4.8520   23.4880   -9.8950 C   0  0  1  0  0  0  0  0  0  0  0  0
   -3.7900   22.5990  -11.8320 C   0  0  1  0  0  0  0  0  0  0  0  0
   -0.9630   14.5670   -2.3250 N   0  0  0  0  0  0  0  0  0  0  0  0
   -3.7620   23.6370   -7.7770 C   0  0  1  0  0  0  0  0  0  0  0  0
   -3.8420   21.4600   -6.8220 O   0  0  0  0  0  0  0  0  0  0  0  0
   -4.2570   24.3390   -8.9360 O   0  0  0  0  0  0  0  0  0  0  0  0
   -3.1080   21.6750  -12.6560 O   0  0  0  0  0  0  0  0  0  0  0  0
   -5.3590   24.0690  -11.2450 C   0  0  2  0  0  0  0  0  0  0  0  0
   -1.0750   14.6740   -1.0140 C   0  0  0  0  0  0  0  0  0  0  0  0
   -2.2810   14.6560   -2.7460 C   0  0  0  0  0  0  0  0  0  0  0  0
   -5.0700   22.0590   -6.5460 C   0  0  2  0  0  0  0  0  0  0  0  0
   -4.7160   23.5790   -6.5850 C   0  0  2  0  0  0  0  0  0  0  0  0
   -5.2190   22.8810  -12.2020 C   0  0  0  0  0  0  0  0  0  0  0  0
   -4.4770   25.0530  -11.7530 O   0  0  0  0  0  0  0  0  0  0  0  0
   -5.5770   21.5560   -5.3460 O   0  0  0  0  0  0  0  0  0  0  0  0
   -5.8960   24.3170   -6.8170 O   0  0  0  0  0  0  0  0  0  0  0  0
   -2.3730   14.8190   -0.5680 C   0  0  0  0  0  0  0  0  0  0  0  0
    0.0220   14.6360   -0.2370 N   0  0  0  0  0  0  0  0  0  0  0  0
   -3.1500   14.8070   -1.7190 N   0  0  0  0  0  0  0  0  0  0  0  0
   -2.6110   14.9370    0.8040 C   0  0  0  0  0  0  0  0  0  0  0  0
   -0.2510   14.7490    1.0790 C   0  0  0  0  0  0  0  0  0  0  0  0
   -3.8590   15.0940    1.3800 N   0  0  0  0  0  0  0  0  0  0  0  0
   -1.4350   14.8890    1.6850 N   0  0  0  0  0  0  0  0  0  0  0  0
  1  2  1  0
  2  3  1  0
  1  4  2  0
  1  5  1  1
  1  6  1  0
  6  7  1  0
  7  8  2  0
  7  9  1  6
  7 10  1  0
 11  3  1  6
 12 10  1  6
 11 13  1  0
 11 14  1  0
 14 15  1  6
 14 16  1  0
 13 17  1  0
 16 17  1  0
 12 18  1  0
 12 19  1  0
 16 20  1  0
 16 21  1  0
 18 22  1  0
 18 23  1  6
 17 24  1  6
 19 25  1  0
 19 26  1  1
 22 27  1  6
 25 27  1  6
 23 28  1  6
 22 29  1  0
 24 30  1  0
 24 31  1  0
 26 32  1  0
 25 33  1  0
 32 33  1  0
 23 34  1  0
 29 34  1  0
 29 35  1  6
 32 36  1  1
 33 37  1  6
 30 38  2  0
 30 39  1  0
 31 40  2  0
 38 40  1  0
 38 41  1  0
 39 42  2  0
 41 43  1  0
 41 44  2  0
 42 44  1  0
M  END
>  <%Rank>  (193) 
76.190476

>  <N_hits>  (193) 
2

>  <submitter_name>  (193) 
nan

>  <original SMILES>  (193) 
nan

>  <∆G_unbound>  (193) 
9.833405

>  <∆G_bound>  (193) 
-9.027637

>  <regarded>  (193) 
mArh-5cms_N_13_N,mArh-5cb5_K_0_K

>  <ref_pdb>  (193) 
nan

>  <smiles>  (193) 
Nc1ncnc2c1ncn2C1OC(CO[P@@](=O)(O)O[P@@](=O)(O)OC2C3OC(O)C(O)C3OC3C(O)CC(O)C32)C(O)C1(O)O

>  <submitter_email>  (193) 
nan

>  <disregarded>  (193) 


>  <LE>  (193) 
-0.42866

>  <submitter_institution>  (193) 
nan

>  <ref_mols>  (193) 
mArh-5cms_N_13_N,mArh-5cb5_K_0_K

>  <N_constrained_atoms>  (193) 
41.0

>  <ref_url>  (193) 
nan

>  <method>  (193) 
nan

>  <comRMSD>  (193) 
1.165992

>  <N_unconstrained_atoms>  (193) 
3.0

>  <∆∆G>  (193) 
-18.861042

>  <runtime>  (193) 
40.981798

>  <generation_date>  (193) 
nan

$$$$
mArh-x0766_0_A-mArh-5cms_A_0_A
     RDKit          3D

 37 40  0  0  0  0  0  0  0  0999 V2000
    0.4860   12.2930   -2.5790 C   0  0  0  0  0  0  0  0  0  0  0  0
    0.5070   10.9730   -2.8460 O   0  0  0  0  0  0  0  0  0  0  0  0
    0.6650   12.6960   -1.4390 O   0  0  0  0  0  0  0  0  0  0  0  0
    0.1950   13.1060   -3.8160 C   0  0  2  0  0  0  0  0  0  0  0  0
    1.5200   13.5110   -4.4640 C   0  0  0  0  0  0  0  0  0  0  0  0
   -0.5300   14.4670   -3.6470 C   0  0  2  0  0  0  0  0  0  0  0  0
    1.8410   14.8840   -3.9340 C   0  0  0  0  0  0  0  0  0  0  0  0
    0.5220   15.6050   -3.7490 C   0  0  1  0  0  0  0  0  0  0  0  0
   -1.6210   14.6750   -2.5920 C   0  0  0  0  0  0  0  0  0  0  0  0
    0.2170   16.5670   -4.9130 C   0  0  0  0  0  0  0  0  0  0  0  0
   -2.9770   14.8220   -2.8600 C   0  0  0  0  0  0  0  0  0  0  0  0
   -1.5030   14.7830   -1.0360 C   0  0  0  0  0  0  0  0  0  0  0  0
   -1.1610   16.9170   -4.9330 O   0  0  0  0  0  0  0  0  0  0  0  0
   -2.7300   14.9960   -0.3900 C   0  0  0  0  0  0  0  0  0  0  0  0
   -3.9980   15.0600   -1.5150 S   0  0  0  0  0  0  0  0  0  0  0  0
   -0.3510   14.6920   -0.3150 N   0  0  0  0  0  0  0  0  0  0  0  0
   -1.7140   18.0500   -5.9270 P   0  0  1  0  0  0  0  0  0  0  0  0
   -2.7930   15.1330    1.0030 C   0  0  0  0  0  0  0  0  0  0  0  0
   -0.5160   14.8240    1.0130 C   0  0  0  0  0  0  0  0  0  0  0  0
   -2.7090   17.5030   -6.8890 O   0  0  0  0  0  0  0  0  0  0  0  0
   -2.2800   19.1400   -4.9120 O   0  0  0  0  0  0  0  0  0  0  0  0
   -0.4340   18.7740   -6.4570 O   0  0  0  0  0  0  0  0  0  0  0  0
   -3.9660   15.3730    1.7120 N   0  0  0  0  0  0  0  0  0  0  0  0
   -1.6550   15.0360    1.6940 N   0  0  0  0  0  0  0  0  0  0  0  0
   -0.2170   19.6230   -7.7510 P   0  0  1  0  0  0  0  0  0  0  0  0
    0.8530   20.6580   -7.6540 O   0  0  0  0  0  0  0  0  0  0  0  0
    0.1970   18.5200   -8.8230 O   0  0  0  0  0  0  0  0  0  0  0  0
   -1.5790   20.2030   -8.3230 O   0  0  0  0  0  0  0  0  0  0  0  0
   -2.3190   21.2090   -7.6400 C   0  0  0  0  0  0  0  0  0  0  0  0
   -3.3940   21.6820   -8.6000 C   0  0  2  0  0  0  0  0  0  0  0  0
   -2.7820   22.3580   -9.7420 C   0  0  1  0  0  0  0  0  0  0  0  0
   -4.3940   22.5590   -8.1170 O   0  0  0  0  0  0  0  0  0  0  0  0
   -3.1860   21.7810  -10.9410 O   0  0  0  0  0  0  0  0  0  0  0  0
   -4.7410   23.2170   -9.2970 C   0  0  2  0  0  0  0  0  0  0  0  0
   -3.4070   23.7150   -9.6480 C   0  0  2  0  0  0  0  0  0  0  0  0
   -5.6520   24.2400   -9.1050 O   0  0  0  0  0  0  0  0  0  0  0  0
   -3.4590   24.5180  -10.8340 O   0  0  0  0  0  0  0  0  0  0  0  0
  1  2  1  0
  1  3  2  0
  4  1  1  1
  4  5  1  0
  4  6  1  0
  5  7  1  0
  6  8  1  0
  7  8  1  0
  6  9  1  1
  8 10  1  6
  9 11  2  0
  9 12  1  0
 10 13  1  0
 12 14  2  0
 11 15  1  0
 14 15  1  0
 12 16  1  0
 13 17  1  0
 14 18  1  0
 16 19  2  0
 17 20  2  0
 17 21  1  1
 17 22  1  0
 18 23  1  0
 18 24  2  0
 19 24  1  0
 22 25  1  0
 25 26  2  0
 25 27  1  6
 25 28  1  0
 28 29  1  0
 30 29  1  1
 30 31  1  0
 30 32  1  0
 31 33  1  6
 32 34  1  0
 31 35  1  0
 34 35  1  0
 34 36  1  1
 35 37  1  6
M  END
>  <%Rank>  (194) 
76.587302

>  <N_hits>  (194) 
2

>  <submitter_name>  (194) 
nan

>  <original SMILES>  (194) 
nan

>  <∆G_unbound>  (194) 
2.907927

>  <∆G_bound>  (194) 
-13.248074

>  <regarded>  (194) 
mArh-x0766_0_A,mArh-5cms_A_0_A

>  <ref_pdb>  (194) 
nan

>  <smiles>  (194) 
Nc1ncnc2c(C3C(CO[P@@](=O)(O)O[P@@](=O)(O)OCC4OC(O)C(O)C4O)CCC3C(=O)O)csc12

>  <submitter_email>  (194) 
nan

>  <disregarded>  (194) 


>  <LE>  (194) 
-0.436649

>  <submitter_institution>  (194) 
nan

>  <ref_mols>  (194) 
mArh-x0766_0_A,mArh-5cms_A_0_A

>  <N_constrained_atoms>  (194) 
37.0

>  <ref_url>  (194) 
nan

>  <method>  (194) 
nan

>  <comRMSD>  (194) 
1.17272

>  <N_unconstrained_atoms>  (194) 
0.0

>  <∆∆G>  (194) 
-16.156001

>  <runtime>  (194) 
50.654258

>  <generation_date>  (194) 
nan

$$$$
mArh-x0216_0_A-mArh-x0933_4_B
     RDKit          3D

 21 23  0  0  0  0  0  0  0  0999 V2000
   18.4810   29.1210    7.0780 N   0  0  0  0  0  0  0  0  0  0  0  0
   17.0780   28.8530    7.1860 C   0  0  1  0  0  0  0  0  0  0  0  0
   16.2520   29.9100    7.8990 C   0  0  1  0  0  0  0  0  0  0  0  0
   19.3270   28.0800    7.0760 C   0  0  0  0  0  0  0  0  0  0  0  0
   19.6780   27.5890    8.1330 O   0  0  0  0  0  0  0  0  0  0  0  0
   19.7760   27.5940    5.8550 N   0  0  0  0  0  0  0  0  0  0  0  0
   16.5980   29.0620    5.8120 C   0  0  0  0  0  0  0  0  0  0  0  0
   16.8450   30.5480    5.6840 C   0  0  0  0  0  0  0  0  0  0  0  0
   19.3240   28.0120    4.5220 C   0  0  0  0  0  0  0  0  0  0  0  0
   20.9650   26.7550    5.9190 C   0  0  2  0  0  0  0  0  0  0  0  0
   16.8590   30.5070    9.1410 C   0  0  0  0  0  0  0  0  0  0  0  0
   16.0020   30.9960    6.8490 C   0  0  2  0  0  0  0  0  0  0  0  0
   22.2510   27.5540    6.2040 C   0  0  0  0  0  0  0  0  0  0  0  0
   21.1810   25.8190    4.7190 C   0  0  0  0  0  0  0  0  0  0  0  0
   17.9250   31.4730    8.8460 N   0  0  0  0  0  0  0  0  0  0  0  0
   16.2860   32.3370    7.3050 N   0  0  0  0  0  0  0  0  0  0  0  0
   22.8610   27.8700    4.8590 C   0  0  0  0  0  0  0  0  0  0  0  0
   22.7120   26.3440    3.9680 S   0  0  0  0  0  0  0  0  0  0  0  0
   17.6310   32.4420    7.8000 C   0  0  0  0  0  0  0  0  0  0  0  0
   22.4600   26.7130    2.5920 O   0  0  0  0  0  0  0  0  0  0  0  0
   23.7790   25.4480    4.3620 O   0  0  0  0  0  0  0  0  0  0  0  0
  2  1  1  6
  2  3  1  0
  1  4  1  0
  4  5  2  0
  4  6  1  0
  2  7  1  0
  7  8  1  0
  6  9  1  0
 10  6  1  6
  3 11  1  1
  3 12  1  0
 12  8  1  6
 10 13  1  0
 10 14  1  0
 11 15  1  0
 12 16  1  0
 13 17  1  0
 18 14  1  0
 17 18  1  0
 15 19  1  0
 16 19  1  0
 18 20  2  0
 18 21  2  0
M  END
>  <%Rank>  (195) 
76.984127

>  <N_hits>  (195) 
2

>  <submitter_name>  (195) 
nan

>  <original SMILES>  (195) 
nan

>  <∆G_unbound>  (195) 
0.894815

>  <∆G_bound>  (195) 
-3.763925

>  <regarded>  (195) 
mArh-x0216_0_A,mArh-x0933_4_B

>  <ref_pdb>  (195) 
nan

>  <smiles>  (195) 
CN(C(=O)NC1CCC2NCNCC21)C1CCS(=O)(=O)C1

>  <submitter_email>  (195) 
nan

>  <disregarded>  (195) 


>  <LE>  (195) 
-0.221845

>  <submitter_institution>  (195) 
nan

>  <ref_mols>  (195) 
mArh-x0216_0_A,mArh-x0933_4_B

>  <N_constrained_atoms>  (195) 
18.0

>  <ref_url>  (195) 
nan

>  <method>  (195) 
nan

>  <comRMSD>  (195) 
0.730708

>  <N_unconstrained_atoms>  (195) 
3.0

>  <∆∆G>  (195) 
-4.658739

>  <runtime>  (195) 
30.268558

>  <generation_date>  (195) 
nan

$$$$
mArh-x0689_0_A-mArh-x0574_0_A
     RDKit          3D

 13 14  0  0  0  0  0  0  0  0999 V2000
   -3.3030   15.5870    1.5990 N   0  0  0  0  0  0  0  0  0  0  0  0
   -2.6710   14.5150    0.8890 C   0  0  2  0  0  0  0  0  0  0  0  0
   -1.5030   14.3310    1.7300 N   0  0  0  0  0  0  0  0  0  0  0  0
   -2.5360   14.7430   -0.5410 N   0  0  0  0  0  0  0  0  0  0  0  0
   -3.7280   13.4110    1.0000 C   0  0  0  0  0  0  0  0  0  0  0  0
   -1.2910   14.6400   -1.1360 C   0  0  0  0  0  0  0  0  0  0  0  0
   -0.2000   14.2890    1.0650 C   0  0  0  0  0  0  0  0  0  0  0  0
   -5.0750   14.0030    0.5800 C   0  0  2  0  0  0  0  0  0  0  0  0
   -3.6970   15.1430   -1.1820 C   0  0  0  0  0  0  0  0  0  0  0  0
   -0.1750   14.4290   -0.4240 C   0  0  0  0  0  0  0  0  0  0  0  0
   -4.9170   14.8280   -0.6970 C   0  0  0  0  0  0  0  0  0  0  0  0
   -5.6350   14.8500    1.6960 C   0  0  0  0  0  0  0  0  0  0  0  0
   -7.0940   14.6220    2.0660 C   0  0  0  0  0  0  0  0  0  0  0  0
  2  1  1  1
  2  3  1  0
  2  4  1  0
  2  5  1  0
  4  6  1  0
  3  7  1  0
  5  8  1  0
  4  9  1  0
  6 10  2  0
  7 10  1  0
  8 11  1  0
  9 11  2  0
  8 12  1  1
 12 13  1  0
M  END
>  <%Rank>  (196) 
77.380952

>  <N_hits>  (196) 
2

>  <submitter_name>  (196) 
nan

>  <original SMILES>  (196) 
nan

>  <∆G_unbound>  (196) 
0.181962

>  <∆G_bound>  (196) 
-3.591432

>  <regarded>  (196) 
mArh-x0689_0_A,mArh-x0574_0_A

>  <ref_pdb>  (196) 
nan

>  <smiles>  (196) 
CCC1C=CN2C=CCNC2(N)C1

>  <submitter_email>  (196) 
nan

>  <disregarded>  (196) 


>  <LE>  (196) 
-0.290261

>  <submitter_institution>  (196) 
nan

>  <ref_mols>  (196) 
mArh-x0689_0_A,mArh-x0574_0_A

>  <N_constrained_atoms>  (196) 
12.0

>  <ref_url>  (196) 
nan

>  <method>  (196) 
nan

>  <comRMSD>  (196) 
0.669817

>  <N_unconstrained_atoms>  (196) 
1.0

>  <∆∆G>  (196) 
-3.773394

>  <runtime>  (196) 
23.234505

>  <generation_date>  (196) 
nan

$$$$
mArh-x0282_0_A-mArh-1hjz_B_0_B
     RDKit          3D

 31 33  0  0  0  0  0  0  0  0999 V2000
   -7.6080   14.4100    1.0610 C   0  0  0  0  0  0  0  0  0  0  0  0
   -8.4400   14.6370   -0.0640 O   0  0  0  0  0  0  0  0  0  0  0  0
   -6.1200   14.3650    0.6830 C   0  0  0  0  0  0  0  0  0  0  0  0
   -5.2060   15.1580    1.5760 C   0  0  0  0  0  0  0  0  0  0  0  0
   -5.7670   14.8140   -0.7320 C   0  0  0  0  0  0  0  0  0  0  0  0
   -3.8780   14.4840    1.4990 C   0  0  0  0  0  0  0  0  0  0  0  0
   -4.2500   14.6430   -0.9890 C   0  0  0  0  0  0  0  0  0  0  0  0
   -3.4100   14.8070    0.2110 N   0  0  0  0  0  0  0  0  0  0  0  0
   -2.0840   14.7530    0.1010 C   0  0  0  0  0  0  0  0  0  0  0  0
   -1.6180   14.7740   -1.1550 N   0  0  0  0  0  0  0  0  0  0  0  0
   -1.3660   14.6760    1.2580 N   0  0  0  0  0  0  0  0  0  0  0  0
   -0.3160   14.7190   -1.3760 C   0  0  0  0  0  0  0  0  0  0  0  0
   -0.0450   14.6200    1.1330 C   0  0  0  0  0  0  0  0  0  0  0  0
    0.1600   14.7430   -2.7950 C   0  0  0  0  0  0  0  0  0  0  0  0
    0.6390   14.6390   -0.2240 C   0  0  0  0  0  0  0  0  0  0  0  0
   -0.3490   15.9630   -3.5540 C   0  0  0  0  0  0  0  0  0  0  0  0
    0.7200   16.4950   -4.5070 C   0  0  0  0  0  0  0  0  0  0  0  0
    0.7240   18.0140   -4.5190 C   0  0  0  0  0  0  0  0  0  0  0  0
    0.9450   18.5270   -5.9390 C   0  0  0  0  0  0  0  0  0  0  0  0
   -0.1360   19.3580   -6.3410 O   0  0  0  0  0  0  0  0  0  0  0  0
   -0.0360   19.9920   -7.8290 S   0  0  0  0  0  0  0  0  0  0  0  0
    0.8730   21.1200   -7.7510 O   0  0  0  0  0  0  0  0  0  0  0  0
    0.1960   18.8680   -8.7290 O   0  0  0  0  0  0  0  0  0  0  0  0
   -1.7130   20.5430   -8.0380 C   0  0  0  0  0  0  0  0  0  0  0  0
   -2.0700   21.7760   -7.2470 C   0  0  0  0  0  0  0  0  0  0  0  0
   -3.4560   22.2400   -7.4790 N   0  0  0  0  0  0  0  0  0  0  0  0
   -3.7040   22.6690   -8.8630 C   0  0  0  0  0  0  0  0  0  0  0  0
   -3.7990   23.3680   -6.6020 C   0  0  0  0  0  0  0  0  0  0  0  0
   -5.0350   23.0500   -9.1020 C   0  0  0  0  0  0  0  0  0  0  0  0
   -5.1900   23.8940   -6.9070 C   0  0  0  0  0  0  0  0  0  0  0  0
   -5.4000   24.1690   -8.2950 O   0  0  0  0  0  0  0  0  0  0  0  0
  1  2  1  0
  1  3  1  0
  3  4  1  0
  3  5  1  0
  4  6  1  0
  5  7  1  0
  6  8  1  0
  7  8  1  0
  8  9  1  0
  9 10  2  0
  9 11  1  0
 10 12  1  0
 11 13  2  0
 12 14  1  0
 12 15  2  0
 13 15  1  0
 14 16  1  0
 16 17  1  0
 17 18  1  0
 18 19  1  0
 19 20  1  0
 21 20  1  0
 21 22  2  0
 21 23  2  0
 21 24  1  0
 24 25  1  0
 25 26  1  0
 26 27  1  0
 26 28  1  0
 27 29  1  0
 28 30  1  0
 29 31  1  0
 30 31  1  0
M  END
>  <%Rank>  (197) 
77.777778

>  <N_hits>  (197) 
2

>  <submitter_name>  (197) 
nan

>  <original SMILES>  (197) 
nan

>  <∆G_unbound>  (197) 
1.405161

>  <∆G_bound>  (197) 
-15.592315

>  <regarded>  (197) 
mArh-x0282_0_A,mArh-1hjz_B_0_B

>  <ref_pdb>  (197) 
nan

>  <smiles>  (197) 
O=S(=O)(CCN1CCOCC1)OCCCCCc1ccnc(N2CCC(CO)CC2)n1

>  <submitter_email>  (197) 
nan

>  <disregarded>  (197) 


>  <LE>  (197) 
-0.548306

>  <submitter_institution>  (197) 
nan

>  <ref_mols>  (197) 
mArh-x0282_0_A,mArh-1hjz_B_0_B

>  <N_constrained_atoms>  (197) 
26.0

>  <ref_url>  (197) 
nan

>  <method>  (197) 
nan

>  <comRMSD>  (197) 
1.05093

>  <N_unconstrained_atoms>  (197) 
5.0

>  <∆∆G>  (197) 
-16.997477

>  <runtime>  (197) 
53.215459

>  <generation_date>  (197) 
nan

$$$$
mArh-x0742_0_A-mArh-x0711_0_A
     RDKit          3D

 24 26  0  0  0  0  0  0  0  0999 V2000
   -5.3730   11.9240   -0.6290 C   0  0  0  0  0  0  0  0  0  0  0  0
   -6.5450   11.5370    0.2410 C   0  0  0  0  0  0  0  0  0  0  0  0
   -5.0150   11.1870   -1.5460 O   0  0  0  0  0  0  0  0  0  0  0  0
   -4.6750   13.2600   -0.3370 C   0  0  2  0  0  0  0  0  0  0  0  0
   -4.5820   13.4110    1.1940 C   0  0  0  0  0  0  0  0  0  0  0  0
   -5.5980   14.2920   -1.0190 C   0  0  1  0  0  0  0  0  0  0  0  0
   -3.3320   13.3820   -1.1140 C   0  0  1  0  0  0  0  0  0  0  0  0
   -6.6710   14.8790   -0.1080 C   0  0  0  0  0  0  0  0  0  0  0  0
   -3.5670   14.4030   -2.2580 C   0  0  1  0  0  0  0  0  0  0  0  0
   -2.1730   13.7870   -0.2590 C   0  0  0  0  0  0  0  0  0  0  0  0
   -3.6680   14.5480    1.5940 C   0  0  0  0  0  0  0  0  0  0  0  0
   -4.6150   15.3300   -1.5990 C   0  0  0  0  0  0  0  0  0  0  0  0
   -2.2600   15.0700   -2.5900 N   0  0  0  0  0  0  0  0  0  0  0  0
   -6.4680   14.7570    1.2410 N   0  0  0  0  0  0  0  0  0  0  0  0
   -7.6900   15.4020   -0.5230 O   0  0  0  0  0  0  0  0  0  0  0  0
   -0.8890   13.6290   -0.7250 C   0  0  0  0  0  0  0  0  0  0  0  0
   -2.3280   14.3330    1.0080 C   0  0  0  0  0  0  0  0  0  0  0  0
   -0.9870   14.2960   -3.4220 S   0  0  0  0  0  0  0  0  0  0  0  0
   -1.3100   14.7020    1.7850 N   0  0  0  0  0  0  0  0  0  0  0  0
    0.1780   14.0080    0.0480 C   0  0  0  0  0  0  0  0  0  0  0  0
   -1.7960   12.9360   -4.2310 C   0  0  0  0  0  0  0  0  0  0  0  0
   -0.4490   15.1840   -4.4240 O   0  0  0  0  0  0  0  0  0  0  0  0
   -0.1020   13.7340   -2.4270 O   0  0  0  0  0  0  0  0  0  0  0  0
   -0.0890   14.5340    1.2910 C   0  0  0  0  0  0  0  0  0  0  0  0
  1  2  1  0
  1  3  2  0
  4  1  1  1
  4  5  1  0
  4  6  1  0
  4  7  1  0
  6  8  1  1
  7  9  1  0
  7 10  1  1
  5 11  1  0
  6 12  1  0
  9 12  1  0
  9 13  1  1
  8 14  1  0
  8 15  2  0
 10 16  1  0
 10 17  2  0
 11 17  1  0
 18 13  1  0
 17 19  1  0
 16 20  2  0
 18 21  1  0
 18 22  2  0
 18 23  2  0
 19 24  2  0
 20 24  1  0
M  END
>  <%Rank>  (198) 
78.174603

>  <N_hits>  (198) 
2

>  <submitter_name>  (198) 
nan

>  <original SMILES>  (198) 
nan

>  <∆G_unbound>  (198) 
1.387335

>  <∆G_bound>  (198) 
-3.227617

>  <regarded>  (198) 
mArh-x0742_0_A,mArh-x0711_0_A

>  <ref_pdb>  (198) 
nan

>  <smiles>  (198) 
CC(=O)C12CCc3ncccc3C1C(NS(C)(=O)=O)CC2C(N)=O

>  <submitter_email>  (198) 
nan

>  <disregarded>  (198) 


>  <LE>  (198) 
-0.19229

>  <submitter_institution>  (198) 
nan

>  <ref_mols>  (198) 
mArh-x0742_0_A,mArh-x0711_0_A

>  <N_constrained_atoms>  (198) 
19.0

>  <ref_url>  (198) 
nan

>  <method>  (198) 
nan

>  <comRMSD>  (198) 
0.723399

>  <N_unconstrained_atoms>  (198) 
5.0

>  <∆∆G>  (198) 
-4.614952

>  <runtime>  (198) 
25.742353

>  <generation_date>  (198) 
nan

$$$$
mArh-x0844_0_A-mArh-x0574_0_A
     RDKit          3D

 14 15  0  0  0  0  0  0  0  0999 V2000
   -7.2920   14.5070    0.5200 N   0  0  0  0  0  0  0  0  0  0  0  0
   -7.6030   14.3580    1.9420 C   0  0  0  0  0  0  0  0  0  0  0  0
   -6.1030   14.9200    0.2600 C   0  0  0  0  0  0  0  0  0  0  0  0
   -5.3030   15.1700    1.3400 N   0  0  0  0  0  0  0  0  0  0  0  0
   -5.4900   15.1840   -1.1050 C   0  0  0  0  0  0  0  0  0  0  0  0
   -4.0080   15.7700    1.1530 C   0  0  0  0  0  0  0  0  0  0  0  0
   -4.0610   14.6170   -1.1270 C   0  0  1  0  0  0  0  0  0  0  0  0
   -3.2350   15.0610   -2.8520 Br  0  0  0  0  0  0  0  0  0  0  0  0
   -3.2000   14.9790    0.1120 C   0  0  1  0  0  0  0  0  0  0  0  0
   -1.5690   15.7020   -0.3930 S   0  0  0  0  0  0  0  0  0  0  0  0
   -2.6740   13.8240    0.9220 C   0  0  0  0  0  0  0  0  0  0  0  0
   -1.5450   14.2510    1.7500 N   0  0  0  0  0  0  0  0  0  0  0  0
   -0.6130   14.8330    0.8410 C   0  0  1  0  0  0  0  0  0  0  0  0
    0.1080   13.7250    0.3250 N   0  0  0  0  0  0  0  0  0  0  0  0
  1  2  1  0
  1  3  2  3
  3  4  1  0
  3  5  1  0
  4  6  1  0
  5  7  1  0
  7  8  1  6
  9  6  1  1
  7  9  1  0
  9 10  1  0
  9 11  1  0
 11 12  1  0
 10 13  1  0
 12 13  1  0
 13 14  1  6
M  END
>  <%Rank>  (199) 
78.571429

>  <N_hits>  (199) 
2

>  <submitter_name>  (199) 
nan

>  <original SMILES>  (199) 
nan

>  <∆G_unbound>  (199) 
0.461654

>  <∆G_bound>  (199) 
-4.133349

>  <regarded>  (199) 
mArh-x0844_0_A,mArh-x0574_0_A

>  <ref_pdb>  (199) 
nan

>  <smiles>  (199) 
CN=C1CC(Br)C2(CN1)CNC(N)S2

>  <submitter_email>  (199) 
nan

>  <disregarded>  (199) 


>  <LE>  (199) 
-0.328215

>  <submitter_institution>  (199) 
nan

>  <ref_mols>  (199) 
mArh-x0844_0_A,mArh-x0574_0_A

>  <N_constrained_atoms>  (199) 
14.0

>  <ref_url>  (199) 
nan

>  <method>  (199) 
nan

>  <comRMSD>  (199) 
0.810639

>  <N_unconstrained_atoms>  (199) 
0.0

>  <∆∆G>  (199) 
-4.595004

>  <runtime>  (199) 
18.281132

>  <generation_date>  (199) 
nan

$$$$
mArh-5cms_I_8_I-mArh-5cms_M_12_M
     RDKit          3D

 37 40  0  0  0  0  0  0  0  0999 V2000
   -1.7080   17.8730   -6.0740 P   0  0  1  0  0  0  0  0  0  0  0  0
   -0.3770   16.9750   -6.0410 O   0  0  0  0  0  0  0  0  0  0  0  0
    0.4340   16.9340   -4.8670 C   0  0  0  0  0  0  0  0  0  0  0  0
   -2.8560   17.2040   -6.7210 O   0  0  0  0  0  0  0  0  0  0  0  0
   -1.9310   18.2280   -4.5450 O   0  0  0  0  0  0  0  0  0  0  0  0
   -1.3700   19.2730   -6.6850 O   0  0  0  0  0  0  0  0  0  0  0  0
   -0.1360   19.5660   -7.6050 P   0  0  1  0  0  0  0  0  0  0  0  0
    1.2010   19.5710   -6.9780 O   0  0  0  0  0  0  0  0  0  0  0  0
   -0.2130   18.4640   -8.7540 O   0  0  0  0  0  0  0  0  0  0  0  0
   -0.6160   20.9460   -8.2620 O   0  0  0  0  0  0  0  0  0  0  0  0
    0.8440   15.4960   -4.4220 C   0  0  1  0  0  0  0  0  0  0  0  0
   -1.6210   21.6440   -7.4910 C   0  0  2  0  0  0  0  0  0  0  0  0
    0.3250   15.2780   -3.0940 O   0  0  0  0  0  0  0  0  0  0  0  0
    0.2470   14.2990   -5.2030 C   0  0  1  0  0  0  0  0  0  0  0  0
    1.1590   13.2060   -5.2200 O   0  0  0  0  0  0  0  0  0  0  0  0
   -1.7650   20.9510   -6.2960 O   0  0  0  0  0  0  0  0  0  0  0  0
   -1.0510   13.9300   -4.4710 C   0  0  2  0  0  0  0  0  0  0  0  0
   -1.0410   14.9530   -3.3610 C   0  0  1  0  0  0  0  0  0  0  0  0
   -2.9360   21.7070   -8.2610 C   0  0  2  0  0  0  0  0  0  0  0  0
   -1.1890   12.5720   -4.0880 O   0  0  0  0  0  0  0  0  0  0  0  0
   -2.5650   22.0710   -9.6070 C   0  0  1  0  0  0  0  0  0  0  0  0
   -3.9440   22.6660   -7.9160 O   0  0  0  0  0  0  0  0  0  0  0  0
   -1.8630   14.9540   -2.1680 N   0  0  0  0  0  0  0  0  0  0  0  0
   -2.3830   20.9450  -10.4020 O   0  0  0  0  0  0  0  0  0  0  0  0
   -4.7170   22.7260   -9.1200 C   0  0  2  0  0  0  0  0  0  0  0  0
   -3.6780   22.9280  -10.1900 C   0  0  2  0  0  0  0  0  0  0  0  0
   -1.5300   14.8680   -0.8390 C   0  0  0  0  0  0  0  0  0  0  0  0
   -3.2280   15.1030   -2.2450 C   0  0  0  0  0  0  0  0  0  0  0  0
   -5.5830   23.8440   -9.1060 O   0  0  0  0  0  0  0  0  0  0  0  0
   -4.0610   22.4850  -11.4950 O   0  0  0  0  0  0  0  0  0  0  0  0
   -2.7460   15.0180   -0.1880 C   0  0  0  0  0  0  0  0  0  0  0  0
   -0.3270   14.7100   -0.2570 N   0  0  0  0  0  0  0  0  0  0  0  0
   -3.7880   15.1440   -1.0670 N   0  0  0  0  0  0  0  0  0  0  0  0
   -2.7310   15.0360    1.1950 C   0  0  0  0  0  0  0  0  0  0  0  0
   -0.4510   14.7150    1.0910 C   0  0  0  0  0  0  0  0  0  0  0  0
   -3.8910   15.2460    1.8990 N   0  0  0  0  0  0  0  0  0  0  0  0
   -1.5610   14.8640    1.8400 N   0  0  0  0  0  0  0  0  0  0  0  0
  1  2  1  0
  2  3  1  0
  1  4  2  0
  1  5  1  1
  1  6  1  0
  6  7  1  0
  7  8  2  0
  7  9  1  6
  7 10  1  0
 11  3  1  6
 10 12  1  0
 11 13  1  0
 11 14  1  0
 14 15  1  1
 12 16  1  1
 14 17  1  0
 13 18  1  0
 17 18  1  0
 12 19  1  0
 17 20  1  1
 19 21  1  0
 19 22  1  1
 18 23  1  1
 21 24  1  6
 22 25  1  0
 21 26  1  0
 25 26  1  0
 23 27  1  0
 23 28  1  0
 25 29  1  1
 26 30  1  6
 27 31  2  0
 27 32  1  0
 28 33  2  0
 31 33  1  0
 31 34  1  0
 32 35  2  0
 34 36  1  0
 34 37  2  0
 35 37  1  0
M  END
>  <%Rank>  (200) 
78.968254

>  <N_hits>  (200) 
2

>  <submitter_name>  (200) 
nan

>  <original SMILES>  (200) 
nan

>  <∆G_unbound>  (200) 
4.714863

>  <∆G_bound>  (200) 
-9.407845

>  <regarded>  (200) 
mArh-5cms_I_8_I,mArh-5cms_M_12_M

>  <ref_pdb>  (200) 
nan

>  <smiles>  (200) 
Nc1ncnc2c1ncn2C1OC(CO[P@@](=O)(O)O[P@@](=O)(O)OC(O)C2OC(O)C(O)C2O)C(O)C1O

>  <submitter_email>  (200) 
nan

>  <disregarded>  (200) 


>  <LE>  (200) 
-0.381695

>  <submitter_institution>  (200) 
nan

>  <ref_mols>  (200) 
mArh-5cms_I_8_I,mArh-5cms_M_12_M

>  <N_constrained_atoms>  (200) 
37.0

>  <ref_url>  (200) 
nan

>  <method>  (200) 
nan

>  <comRMSD>  (200) 
1.19713

>  <N_unconstrained_atoms>  (200) 
0.0

>  <∆∆G>  (200) 
-14.122707

>  <runtime>  (200) 
47.475359

>  <generation_date>  (200) 
nan

$$$$
mArh-x0900_1_A-mArh-5cms_B_1_B
     RDKit          3D

 44 48  0  0  0  0  0  0  0  0999 V2000
   -0.4430    9.7470   -9.6180 O   0  0  0  0  0  0  0  0  0  0  0  0
   -0.7840    9.3780   -8.5050 C   0  0  0  0  0  0  0  0  0  0  0  0
   -0.0980    9.5240   -7.3170 N   0  0  0  0  0  0  0  0  0  0  0  0
   -2.0730    8.6650   -8.1580 C   0  0  0  0  0  0  0  0  0  0  0  0
   -1.9550    8.5000   -6.6440 C   0  0  0  0  0  0  0  0  0  0  0  0
   -1.1060    9.7040   -6.2960 C   0  0  1  0  0  0  0  0  0  0  0  0
   -0.6660    9.7760   -4.8250 C   0  0  0  0  0  0  0  0  0  0  0  0
   -0.0260   11.0980   -4.3800 C   0  0  0  0  0  0  0  0  0  0  0  0
   -0.8760   12.1970   -4.0080 O   0  0  0  0  0  0  0  0  0  0  0  0
   -0.1260   13.4070   -3.9840 C   0  0  1  0  0  0  0  0  0  0  0  0
   -0.3340   14.3840   -5.1440 C   0  0  2  0  0  0  0  0  0  0  0  0
   -0.2200   14.3260   -2.7450 C   0  0  1  0  0  0  0  0  0  0  0  0
    0.7480   14.1420   -6.0390 O   0  0  0  0  0  0  0  0  0  0  0  0
    0.2750   15.5880   -3.2170 O   0  0  0  0  0  0  0  0  0  0  0  0
   -0.3510   15.7880   -4.5000 C   0  0  1  0  0  0  0  0  0  0  0  0
   -1.4020   14.6000   -1.9270 N   0  0  0  0  0  0  0  0  0  0  0  0
    0.4250   16.9280   -5.2060 C   0  0  0  0  0  0  0  0  0  0  0  0
   -1.4030   14.6390   -0.5740 C   0  0  0  0  0  0  0  0  0  0  0  0
   -2.6880   14.8820   -2.3400 C   0  0  0  0  0  0  0  0  0  0  0  0
   -0.2890   17.5770   -6.2720 O   0  0  0  0  0  0  0  0  0  0  0  0
   -2.6960   14.9610   -0.2020 C   0  0  0  0  0  0  0  0  0  0  0  0
   -0.3510   14.4160    0.2170 N   0  0  0  0  0  0  0  0  0  0  0  0
   -3.5000   15.1080   -1.3160 N   0  0  0  0  0  0  0  0  0  0  0  0
   -1.7810   18.1660   -6.1120 P   0  0  1  0  0  0  0  0  0  0  0  0
   -2.9300   15.0760    1.1760 C   0  0  0  0  0  0  0  0  0  0  0  0
   -0.6870   14.5280    1.4960 C   0  0  0  0  0  0  0  0  0  0  0  0
   -2.7700   17.3150   -6.7840 O   0  0  0  0  0  0  0  0  0  0  0  0
   -1.9680   18.1760   -4.5440 O   0  0  0  0  0  0  0  0  0  0  0  0
   -1.7680   19.7110   -6.5360 O   0  0  0  0  0  0  0  0  0  0  0  0
   -4.1600   15.4220    1.7260 N   0  0  0  0  0  0  0  0  0  0  0  0
   -1.8950   14.8350    2.0110 N   0  0  0  0  0  0  0  0  0  0  0  0
   -1.1770   20.2990   -7.8900 P   0  0  1  0  0  0  0  0  0  0  0  0
    0.1020   21.0520   -7.7340 O   0  0  0  0  0  0  0  0  0  0  0  0
   -0.8000   18.9400   -8.6740 O   0  0  0  0  0  0  0  0  0  0  0  0
   -2.4420   20.9860   -8.7550 O   0  0  0  0  0  0  0  0  0  0  0  0
   -3.4160   22.0330   -8.3730 C   0  0  0  0  0  0  0  0  0  0  0  0
   -4.5240   22.6710   -9.4460 C   0  0  2  0  0  0  0  0  0  0  0  0
   -4.7600   22.3090  -10.9850 C   0  0  1  0  0  0  0  0  0  0  0  0
   -4.2330   24.1240   -9.5530 O   0  0  0  0  0  0  0  0  0  0  0  0
   -6.0680   21.8860  -11.3100 O   0  0  0  0  0  0  0  0  0  0  0  0
   -4.3990   24.6470  -10.9260 C   0  0  2  0  0  0  0  0  0  0  0  0
   -4.5560   23.5150  -11.9100 C   0  0  2  0  0  0  0  0  0  0  0  0
   -3.2120   25.2820  -11.3970 O   0  0  0  0  0  0  0  0  0  0  0  0
   -5.5510   23.7050  -12.8810 O   0  0  0  0  0  0  0  0  0  0  0  0
  1  2  2  0
  2  3  1  0
  2  4  1  0
  4  5  1  0
  3  6  1  0
  5  6  1  0
  6  7  1  1
  7  8  1  0
  8  9  1  0
 10  9  1  1
 10 11  1  0
 10 12  1  0
 11 13  1  6
 12 14  1  0
 11 15  1  0
 14 15  1  0
 12 16  1  6
 15 17  1  6
 16 18  1  0
 16 19  1  0
 17 20  1  0
 18 21  2  0
 18 22  1  0
 19 23  2  0
 21 23  1  0
 20 24  1  0
 21 25  1  0
 22 26  2  0
 24 27  2  0
 24 28  1  1
 24 29  1  0
 25 30  1  0
 25 31  2  0
 26 31  1  0
 29 32  1  0
 32 33  2  0
 32 34  1  6
 32 35  1  0
 35 36  1  0
 37 36  1  6
 37 38  1  0
 37 39  1  0
 38 40  1  1
 39 41  1  0
 38 42  1  0
 41 42  1  0
 41 43  1  6
 42 44  1  6
M  END
>  <%Rank>  (201) 
79.365079

>  <N_hits>  (201) 
2

>  <submitter_name>  (201) 
nan

>  <original SMILES>  (201) 
nan

>  <∆G_unbound>  (201) 
5.575849

>  <∆G_bound>  (201) 
-7.600234

>  <regarded>  (201) 
mArh-x0900_1_A,mArh-5cms_B_1_B

>  <ref_pdb>  (201) 
nan

>  <smiles>  (201) 
Nc1ncnc2c1ncn2C1OC(CO[P@@](=O)(O)O[P@@](=O)(O)OCC2OC(O)C(O)C2O)C(O)C1OCCC1CCC(=O)N1

>  <submitter_email>  (201) 
nan

>  <disregarded>  (201) 


>  <LE>  (201) 
-0.299456

>  <submitter_institution>  (201) 
nan

>  <ref_mols>  (201) 
mArh-x0900_1_A,mArh-5cms_B_1_B

>  <N_constrained_atoms>  (201) 
42.0

>  <ref_url>  (201) 
nan

>  <method>  (201) 
nan

>  <comRMSD>  (201) 
1.185339

>  <N_unconstrained_atoms>  (201) 
2.0

>  <∆∆G>  (201) 
-13.176082

>  <runtime>  (201) 
45.890169

>  <generation_date>  (201) 
nan

$$$$
mArh-x0587_0_A-mArh-5cms_E_5_E
     RDKit          3D

 48 52  0  0  0  0  0  0  0  0999 V2000
   -7.9140   14.8160    4.2340 N   0  0  0  0  0  0  0  0  0  0  0  0
   -8.3950   14.8980    2.9630 C   0  0  0  0  0  0  0  0  0  0  0  0
   -9.5600   15.0710    2.6300 O   0  0  0  0  0  0  0  0  0  0  0  0
   -7.4190   14.7910    1.8000 C   0  0  0  0  0  0  0  0  0  0  0  0
   -7.9820   14.6660    0.4090 C   0  0  0  0  0  0  0  0  0  0  0  0
   -6.0640   14.8080    1.8850 C   0  0  0  0  0  0  0  0  0  0  0  0
   -7.1690   14.5880   -0.6640 N   0  0  0  0  0  0  0  0  0  0  0  0
   -5.2580   14.7290    0.8100 N   0  0  0  0  0  0  0  0  0  0  0  0
   -5.8290   14.6280   -0.4190 C   0  0  0  0  0  0  0  0  0  0  0  0
   -4.8730   14.5610   -1.6280 C   0  0  0  0  0  0  0  0  0  0  0  0
   -4.5440   13.2640   -1.9280 F   0  0  0  0  0  0  0  0  0  0  0  0
   -5.4300   15.0510   -2.7670 F   0  0  0  0  0  0  0  0  0  0  0  0
   -3.6360   15.2960   -1.4140 N   0  0  0  0  0  0  0  0  0  0  0  0
   -2.7890   14.8270   -0.3180 C   0  0  2  0  0  0  0  0  0  0  0  0
   -2.7770   15.1160   -2.5900 C   0  0  0  0  0  0  0  0  0  0  0  0
   -2.5870   15.4660    1.0490 C   0  0  1  0  0  0  0  0  0  0  0  0
   -1.3790   14.8510   -0.8940 C   0  0  2  0  0  0  0  0  0  0  0  0
   -1.7090   14.2260   -2.1410 N   0  0  0  0  0  0  0  0  0  0  0  0
   -3.7930   15.6040    1.8380 N   0  0  0  0  0  0  0  0  0  0  0  0
   -0.5800   14.1070   -3.0280 C   0  0  2  0  0  0  0  0  0  0  0  0
   -1.6660   14.6750    1.8040 N   0  0  0  0  0  0  0  0  0  0  0  0
   -0.4140   14.1000   -0.1200 N   0  0  0  0  0  0  0  0  0  0  0  0
    0.1660   15.3220   -3.1700 O   0  0  0  0  0  0  0  0  0  0  0  0
   -0.8900   13.5830   -4.4420 C   0  0  2  0  0  0  0  0  0  0  0  0
   -0.3390   14.5750    1.2430 C   0  0  0  0  0  0  0  0  0  0  0  0
   -1.0570   12.1600   -4.5130 O   0  0  0  0  0  0  0  0  0  0  0  0
    0.7700   15.3400   -4.4770 C   0  0  1  0  0  0  0  0  0  0  0  0
    0.3680   14.0250   -5.1790 C   0  0  1  0  0  0  0  0  0  0  0  0
    0.3830   16.6740   -5.1200 C   0  0  0  0  0  0  0  0  0  0  0  0
    1.3750   13.0220   -5.1860 O   0  0  0  0  0  0  0  0  0  0  0  0
   -1.0090   16.9410   -4.9640 O   0  0  0  0  0  0  0  0  0  0  0  0
   -1.6320   18.0230   -5.9600 P   0  0  1  0  0  0  0  0  0  0  0  0
   -2.6680   17.4930   -6.8720 O   0  0  0  0  0  0  0  0  0  0  0  0
   -2.2420   19.1540   -5.0200 O   0  0  0  0  0  0  0  0  0  0  0  0
   -0.3980   18.7660   -6.5810 O   0  0  0  0  0  0  0  0  0  0  0  0
   -0.3670   19.7570   -7.8030 P   0  0  1  0  0  0  0  0  0  0  0  0
    0.6620   20.8240   -7.7650 O   0  0  0  0  0  0  0  0  0  0  0  0
   -0.0810   18.7090   -8.9650 O   0  0  0  0  0  0  0  0  0  0  0  0
   -1.8980   20.2260   -7.9930 O   0  0  0  0  0  0  0  0  0  0  0  0
   -2.2450   21.6140   -8.1400 C   0  0  0  0  0  0  0  0  0  0  0  0
   -3.7150   21.7250   -8.6220 C   0  0  2  0  0  0  0  0  0  0  0  0
   -3.9290   22.2620   -9.9980 C   0  0  1  0  0  0  0  0  0  0  0  0
   -4.5220   22.5790   -7.8080 O   0  0  0  0  0  0  0  0  0  0  0  0
   -5.1670   22.1980  -10.6510 O   0  0  0  0  0  0  0  0  0  0  0  0
   -4.6740   23.7670   -8.5530 C   0  0  2  0  0  0  0  0  0  0  0  0
   -3.6720   23.6950   -9.6210 C   0  0  2  0  0  0  0  0  0  0  0  0
   -4.3470   24.8390   -7.7310 O   0  0  0  0  0  0  0  0  0  0  0  0
   -3.9790   24.6020  -10.7180 O   0  0  0  0  0  0  0  0  0  0  0  0
  1  2  1  0
  2  3  2  0
  2  4  1  0
  4  5  2  0
  4  6  1  0
  5  7  1  0
  6  8  2  0
  7  9  2  0
  8  9  1  0
  9 10  1  0
 10 11  1  0
 10 12  1  0
 10 13  1  0
 14 13  1  6
 13 15  1  0
 14 16  1  0
 14 17  1  0
 15 18  1  0
 17 18  1  0
 16 19  1  1
 20 18  1  6
 16 21  1  0
 17 22  1  1
 20 23  1  0
 20 24  1  0
 21 25  1  0
 22 25  1  0
 24 26  1  1
 23 27  1  0
 24 28  1  0
 27 28  1  0
 27 29  1  6
 28 30  1  1
 29 31  1  0
 31 32  1  0
 32 33  2  0
 32 34  1  1
 32 35  1  0
 35 36  1  0
 36 37  2  0
 36 38  1  6
 36 39  1  0
 39 40  1  0
 41 40  1  1
 41 42  1  0
 41 43  1  0
 42 44  1  1
 43 45  1  0
 42 46  1  0
 45 46  1  0
 45 47  1  1
 46 48  1  6
M  END
>  <%Rank>  (202) 
79.761905

>  <N_hits>  (202) 
2

>  <submitter_name>  (202) 
nan

>  <original SMILES>  (202) 
nan

>  <∆G_unbound>  (202) 
12.236468

>  <∆G_bound>  (202) 
-4.110629

>  <regarded>  (202) 
mArh-x0587_0_A,mArh-5cms_E_5_E

>  <ref_pdb>  (202) 
nan

>  <smiles>  (202) 
NC(=O)c1cnc(C(F)(F)N2CN(C3OC(CO[P@@](=O)(O)O[P@@](=O)(O)OCC4OC(O)C(O)C4O)C(O)C3O)C3NCNC(N)C32)nc1

>  <submitter_email>  (202) 
nan

>  <disregarded>  (202) 


>  <LE>  (202) 
-0.340565

>  <submitter_institution>  (202) 
nan

>  <ref_mols>  (202) 
mArh-x0587_0_A,mArh-5cms_E_5_E

>  <N_constrained_atoms>  (202) 
48.0

>  <ref_url>  (202) 
nan

>  <method>  (202) 
nan

>  <comRMSD>  (202) 
1.283923

>  <N_unconstrained_atoms>  (202) 
0.0

>  <∆∆G>  (202) 
-16.347098

>  <runtime>  (202) 
27.515826

>  <generation_date>  (202) 
nan

$$$$
mArh-x0895_1_A-mArh-x0910_1_A
     RDKit          3D

 13 14  0  0  0  0  0  0  0  0999 V2000
   -2.2340   15.0180    1.6240 O   0  0  0  0  0  0  0  0  0  0  0  0
   -3.3170   15.0480    1.0200 C   0  0  0  0  0  0  0  0  0  0  0  0
   -3.5690   15.1820   -0.4980 C   0  0  1  0  0  0  0  0  0  0  0  0
   -4.5400   14.9600    1.5840 N   0  0  0  0  0  0  0  0  0  0  0  0
   -2.5690   14.5460   -1.3080 N   0  0  0  0  0  0  0  0  0  0  0  0
   -4.8260   14.5630   -0.5980 N   0  0  0  0  0  0  0  0  0  0  0  0
   -5.4520   14.7130    0.6180 C   0  0  0  0  0  0  0  0  0  0  0  0
   -6.6500   14.6330    0.7930 O   0  0  0  0  0  0  0  0  0  0  0  0
   -1.3890   14.6360   -0.7110 C   0  0  0  0  0  0  0  0  0  0  0  0
   -1.2840   14.3280    0.6070 N   0  0  0  0  0  0  0  0  0  0  0  0
   -0.2320   15.0000   -1.1630 N   0  0  0  0  0  0  0  0  0  0  0  0
   -0.0530   14.5000    1.0620 N   0  0  0  0  0  0  0  0  0  0  0  0
    0.5460   14.9110   -0.0590 C   0  0  0  0  0  0  0  0  0  0  0  0
  1  2  2  0
  2  3  1  0
  2  4  1  0
  3  5  1  6
  3  6  1  0
  4  7  1  0
  6  7  1  0
  7  8  2  0
  5  9  1  0
  9 10  1  0
  9 11  2  0
 10 12  1  0
 11 13  1  0
 12 13  2  0
M  END
>  <%Rank>  (203) 
80.15873

>  <N_hits>  (203) 
2

>  <submitter_name>  (203) 
nan

>  <original SMILES>  (203) 
nan

>  <∆G_unbound>  (203) 
1.87211

>  <∆G_bound>  (203) 
-0.330673

>  <regarded>  (203) 
mArh-x0895_1_A,mArh-x0910_1_A

>  <ref_pdb>  (203) 
nan

>  <smiles>  (203) 
O=C1NC(=O)C(Nc2ncn[nH]2)N1

>  <submitter_email>  (203) 
nan

>  <disregarded>  (203) 


>  <LE>  (203) 
-0.169445

>  <submitter_institution>  (203) 
nan

>  <ref_mols>  (203) 
mArh-x0895_1_A,mArh-x0910_1_A

>  <N_constrained_atoms>  (203) 
13.0

>  <ref_url>  (203) 
nan

>  <method>  (203) 
nan

>  <comRMSD>  (203) 
0.735606

>  <N_unconstrained_atoms>  (203) 
0.0

>  <∆∆G>  (203) 
-2.202783

>  <runtime>  (203) 
23.020337

>  <generation_date>  (203) 
nan

$$$$
mArh-x0969_0_A-mArh-5lw0_B_1_B
     RDKit          3D

 41 45  0  0  0  0  0  0  0  0999 V2000
   -6.6350   14.2680    1.8720 N   0  0  0  0  0  0  0  0  0  0  0  0
   -6.2280   14.5380    0.6060 C   0  0  0  0  0  0  0  0  0  0  0  0
   -7.0170   15.2000   -0.2930 N   0  0  0  0  0  0  0  0  0  0  0  0
   -5.0650   14.2740   -0.0980 C   0  0  0  0  0  0  0  0  0  0  0  0
   -6.4320   15.3930   -1.5010 N   0  0  0  0  0  0  0  0  0  0  0  0
   -5.2190   14.8280   -1.3750 C   0  0  0  0  0  0  0  0  0  0  0  0
   -3.8180   13.5840    0.2170 C   0  0  0  0  0  0  0  0  0  0  0  0
   -4.1440   14.7860   -2.4770 C   0  0  0  0  0  0  0  0  0  0  0  0
   -2.6160   14.3820   -0.3590 C   0  0  1  0  0  0  0  0  0  0  0  0
   -2.6060   14.5830   -1.9920 C   0  0  2  0  0  0  0  0  0  0  0  0
   -2.5500   15.5400    0.6250 C   0  0  1  0  0  0  0  0  0  0  0  0
   -1.3180   13.6290   -0.0400 C   0  0  0  0  0  0  0  0  0  0  0  0
   -3.7470   15.7930    1.4260 N   0  0  0  0  0  0  0  0  0  0  0  0
   -1.7330   15.7250   -2.4540 O   0  0  0  0  0  0  0  0  0  0  0  0
   -1.7560   13.4160   -2.7220 C   0  0  1  0  0  0  0  0  0  0  0  0
   -1.5360   15.2780    1.5890 N   0  0  0  0  0  0  0  0  0  0  0  0
   -0.1460   14.4380   -0.1120 N   0  0  0  0  0  0  0  0  0  0  0  0
   -2.4540   12.3030   -3.2500 O   0  0  0  0  0  0  0  0  0  0  0  0
   -1.2460   15.4640   -3.8310 C   0  0  2  0  0  0  0  0  0  0  0  0
   -0.8760   13.9960   -3.8580 C   0  0  1  0  0  0  0  0  0  0  0  0
   -0.1810   15.1880    1.0800 C   0  0  0  0  0  0  0  0  0  0  0  0
   -0.1770   16.4560   -4.3430 C   0  0  0  0  0  0  0  0  0  0  0  0
    0.5120   13.6580   -3.7040 O   0  0  0  0  0  0  0  0  0  0  0  0
   -0.4770   16.7830   -5.7130 O   0  0  0  0  0  0  0  0  0  0  0  0
   -1.7740   17.6830   -6.0060 P   0  0  1  0  0  0  0  0  0  0  0  0
   -2.8380   16.9950   -6.7710 O   0  0  0  0  0  0  0  0  0  0  0  0
   -2.1130   17.8980   -4.4690 O   0  0  0  0  0  0  0  0  0  0  0  0
   -1.2820   19.1140   -6.4800 O   0  0  0  0  0  0  0  0  0  0  0  0
   -0.5240   19.5950   -7.8050 P   0  0  1  0  0  0  0  0  0  0  0  0
    0.7260   20.3590   -7.6520 O   0  0  0  0  0  0  0  0  0  0  0  0
   -0.2930   18.3260   -8.7330 O   0  0  0  0  0  0  0  0  0  0  0  0
   -1.6360   20.3630   -8.6710 O   0  0  0  0  0  0  0  0  0  0  0  0
   -2.1840   21.6080   -8.2160 C   0  0  0  0  0  0  0  0  0  0  0  0
   -3.7050   21.5970   -8.4350 C   0  0  2  0  0  0  0  0  0  0  0  0
   -4.4750   22.8330   -8.8700 C   0  0  1  0  0  0  0  0  0  0  0  0
   -4.2450   21.1640   -7.1740 O   0  0  0  0  0  0  0  0  0  0  0  0
   -4.6750   22.8070  -10.2870 O   0  0  0  0  0  0  0  0  0  0  0  0
   -5.4450   21.8700   -6.9680 C   0  0  1  0  0  0  0  0  0  0  0  0
   -5.8200   22.5060   -8.2850 C   0  0  1  0  0  0  0  0  0  0  0  0
   -6.4660   20.9990   -6.5920 O   0  0  0  0  0  0  0  0  0  0  0  0
   -6.6050   23.6670   -8.0670 O   0  0  0  0  0  0  0  0  0  0  0  0
  1  2  1  0
  2  3  1  0
  2  4  2  0
  3  5  1  0
  4  6  1  0
  5  6  2  0
  4  7  1  0
  6  8  1  0
  9  7  1  1
 10  8  1  6
  9 10  1  0
  9 11  1  0
  9 12  1  0
 11 13  1  1
 10 14  1  0
 10 15  1  0
 11 16  1  0
 12 17  1  0
 15 18  1  6
 14 19  1  0
 15 20  1  0
 19 20  1  0
 16 21  1  0
 17 21  1  0
 19 22  1  1
 20 23  1  1
 22 24  1  0
 24 25  1  0
 25 26  2  0
 25 27  1  1
 25 28  1  0
 28 29  1  0
 29 30  2  0
 29 31  1  6
 29 32  1  0
 32 33  1  0
 34 33  1  1
 34 35  1  0
 34 36  1  0
 35 37  1  6
 36 38  1  0
 35 39  1  0
 38 39  1  0
 38 40  1  6
 39 41  1  1
M  END
>  <%Rank>  (204) 
80.555556

>  <N_hits>  (204) 
2

>  <submitter_name>  (204) 
nan

>  <original SMILES>  (204) 
nan

>  <∆G_unbound>  (204) 
7.075056

>  <∆G_bound>  (204) 
-8.141038

>  <regarded>  (204) 
mArh-x0969_0_A,mArh-5lw0_B_1_B

>  <ref_pdb>  (204) 
nan

>  <smiles>  (204) 
Nc1[nH]nc2c1CC1(CNCNC1N)C1(C2)OC(CO[P@@](=O)(O)O[P@@](=O)(O)OCC2OC(O)C(O)C2O)C(O)C1O

>  <submitter_email>  (204) 
nan

>  <disregarded>  (204) 


>  <LE>  (204) 
-0.371124

>  <submitter_institution>  (204) 
nan

>  <ref_mols>  (204) 
mArh-x0969_0_A,mArh-5lw0_B_1_B

>  <N_constrained_atoms>  (204) 
41.0

>  <ref_url>  (204) 
nan

>  <method>  (204) 
nan

>  <comRMSD>  (204) 
1.255917

>  <N_unconstrained_atoms>  (204) 
0.0

>  <∆∆G>  (204) 
-15.216094

>  <runtime>  (204) 
37.810089

>  <generation_date>  (204) 
nan

$$$$
mArh-x0685_1_A-mArh-x0592_0_A
     RDKit          3D

 26 27  0  0  0  0  0  0  0  0999 V2000
   -0.9190   10.8170   -4.9040 N   0  0  0  0  0  0  0  0  0  0  0  0
   -0.9740   12.2840   -4.8660 C   0  0  0  0  0  0  0  0  0  0  0  0
   -0.3580   13.0090   -3.6760 C   0  0  0  0  0  0  0  0  0  0  0  0
   -0.5420   10.3700   -6.2540 C   0  0  0  0  0  0  0  0  0  0  0  0
   -0.5480    8.8490   -6.3930 C   0  0  0  0  0  0  0  0  0  0  0  0
   -1.4850   10.9490   -7.3190 C   0  0  0  0  0  0  0  0  0  0  0  0
    0.7460   12.0370   -2.6460 S   0  0  0  0  0  0  0  0  0  0  0  0
   -0.0270    8.4480   -7.7720 C   0  0  0  0  0  0  0  0  0  0  0  0
   -1.0870   10.5650   -8.7460 C   0  0  0  0  0  0  0  0  0  0  0  0
    2.1120   12.3150   -3.0400 O   0  0  0  0  0  0  0  0  0  0  0  0
    0.2580   10.6700   -2.4860 O   0  0  0  0  0  0  0  0  0  0  0  0
    0.4610   12.8070   -1.2360 O   0  0  0  0  0  0  0  0  0  0  0  0
   -0.8430    9.0640   -8.9180 C   0  0  0  0  0  0  0  0  0  0  0  0
    0.2550   14.2180   -1.2080 C   0  0  0  0  0  0  0  0  0  0  0  0
   -0.7370   14.5680   -0.0870 C   0  0  0  0  0  0  0  0  0  0  0  0
   -2.1180   14.6170   -0.5930 N   0  0  0  0  0  0  0  0  0  0  0  0
   -3.1370   14.7400    0.1800 C   0  0  0  0  0  0  0  0  0  0  0  0
   -2.8920   14.8360    1.5240 N   0  0  0  0  0  0  0  0  0  0  0  0
   -4.5650   14.7970   -0.0910 C   0  0  0  0  0  0  0  0  0  0  0  0
   -5.2710   15.1040   -1.2920 C   0  0  0  0  0  0  0  0  0  0  0  0
   -5.5800   14.5570    0.7980 C   0  0  0  0  0  0  0  0  0  0  0  0
   -6.6090   15.0530   -1.1460 N   0  0  0  0  0  0  0  0  0  0  0  0
   -6.7590   14.7150    0.1500 N   0  0  0  0  0  0  0  0  0  0  0  0
   -8.0720   14.5510    0.7520 C   0  0  0  0  0  0  0  0  0  0  0  0
   -7.9620   14.1240    2.2170 C   0  0  0  0  0  0  0  0  0  0  0  0
   -7.1860   15.0480    2.9850 O   0  0  0  0  0  0  0  0  0  0  0  0
  1  2  1  0
  2  3  1  0
  1  4  1  0
  4  5  1  0
  4  6  1  0
  3  7  1  0
  5  8  1  0
  6  9  1  0
  7 10  2  0
  7 11  2  0
  7 12  1  0
  8 13  1  0
  9 13  1  0
 12 14  1  0
 14 15  1  0
 15 16  1  0
 16 17  2  3
 17 18  1  0
 17 19  1  0
 19 20  1  0
 19 21  2  0
 20 22  2  0
 21 23  1  0
 22 23  1  0
 23 24  1  0
 24 25  1  0
 25 26  1  0
M  END
>  <%Rank>  (205) 
80.952381

>  <N_hits>  (205) 
2

>  <submitter_name>  (205) 
nan

>  <original SMILES>  (205) 
nan

>  <∆G_unbound>  (205) 
1.553242

>  <∆G_bound>  (205) 
-11.029648

>  <regarded>  (205) 
mArh-x0685_1_A,mArh-x0592_0_A

>  <ref_pdb>  (205) 
nan

>  <smiles>  (205) 
NC(=NCCOS(=O)(=O)CCNC1CCCCC1)c1cnn(CCO)c1

>  <submitter_email>  (205) 
nan

>  <disregarded>  (205) 


>  <LE>  (205) 
-0.483957

>  <submitter_institution>  (205) 
nan

>  <ref_mols>  (205) 
mArh-x0685_1_A,mArh-x0592_0_A

>  <N_constrained_atoms>  (205) 
24.0

>  <ref_url>  (205) 
nan

>  <method>  (205) 
nan

>  <comRMSD>  (205) 
1.083162

>  <N_unconstrained_atoms>  (205) 
2.0

>  <∆∆G>  (205) 
-12.582891

>  <runtime>  (205) 
30.528214

>  <generation_date>  (205) 
nan

$$$$
mArh-x0282_0_A-mArh-x1015_0_A
     RDKit          3D

 29 32  0  0  0  0  0  0  0  0999 V2000
   -7.0570   13.4590    0.4960 C   0  0  0  0  0  0  0  0  0  0  0  0
   -8.4390   13.7550    0.2950 O   0  0  0  0  0  0  0  0  0  0  0  0
   -6.2920   14.7600    0.2940 C   0  0  0  0  0  0  0  0  0  0  0  0
   -5.3380   15.0800    1.4630 C   0  0  0  0  0  0  0  0  0  0  0  0
   -5.5500   14.8710   -1.0420 C   0  0  0  0  0  0  0  0  0  0  0  0
   -4.0640   14.2710    1.4170 C   0  0  0  0  0  0  0  0  0  0  0  0
   -4.1320   14.2860   -1.0240 C   0  0  0  0  0  0  0  0  0  0  0  0
   -3.4480   14.5950    0.2170 N   0  0  0  0  0  0  0  0  0  0  0  0
   -2.0990   14.6720    0.2210 C   0  0  0  0  0  0  0  0  0  0  0  0
   -1.5550   14.7750   -0.9630 N   0  0  0  0  0  0  0  0  0  0  0  0
   -1.3990   14.6470    1.3790 N   0  0  0  0  0  0  0  0  0  0  0  0
   -0.2540   14.8730   -1.0350 C   0  0  0  0  0  0  0  0  0  0  0  0
   -0.0690   14.7470    1.2370 C   0  0  0  0  0  0  0  0  0  0  0  0
    0.2070   14.9640   -2.3160 N   0  0  0  0  0  0  0  0  0  0  0  0
    0.5520   14.8740    0.0170 C   0  0  0  0  0  0  0  0  0  0  0  0
    0.2390   13.8360   -2.8690 C   0  0  0  0  0  0  0  0  0  0  0  0
    0.5570   13.4270   -4.2700 C   0  0  2  0  0  0  0  0  0  0  0  0
   -0.0880   12.7530   -2.1200 N   0  0  0  0  0  0  0  0  0  0  0  0
   -0.4590   14.1510   -5.1510 C   0  0  0  0  0  0  0  0  0  0  0  0
    0.2740   11.9970   -4.1450 N   0  0  0  0  0  0  0  0  0  0  0  0
    0.2080   11.6220   -2.7990 C   0  0  0  0  0  0  0  0  0  0  0  0
    0.3680   10.5200   -2.2690 O   0  0  0  0  0  0  0  0  0  0  0  0
   -0.2740   11.2560   -5.2050 C   0  0  0  0  0  0  0  0  0  0  0  0
    0.1850   11.4560   -6.5110 C   0  0  0  0  0  0  0  0  0  0  0  0
   -1.2820   10.3050   -4.9940 C   0  0  0  0  0  0  0  0  0  0  0  0
   -0.3400   10.7290   -7.5760 C   0  0  0  0  0  0  0  0  0  0  0  0
   -1.8120    9.5720   -6.0570 C   0  0  0  0  0  0  0  0  0  0  0  0
   -1.3370    9.7880   -7.3440 C   0  0  0  0  0  0  0  0  0  0  0  0
   -1.9820    8.8880   -8.6540 Cl  0  0  0  0  0  0  0  0  0  0  0  0
  1  2  1  0
  1  3  1  0
  3  4  1  0
  3  5  1  0
  4  6  1  0
  5  7  1  0
  6  8  1  0
  7  8  1  0
  8  9  1  0
  9 10  2  0
  9 11  1  0
 10 12  1  0
 11 13  2  0
 12 14  1  0
 12 15  2  0
 13 15  1  0
 14 16  2  3
 16 17  1  0
 16 18  1  0
 17 19  1  6
 17 20  1  0
 18 21  1  0
 20 21  1  0
 21 22  2  0
 20 23  1  0
 23 24  2  0
 23 25  1  0
 24 26  1  0
 25 27  2  0
 26 28  2  0
 27 28  1  0
 28 29  1  0
M  END
>  <%Rank>  (206) 
81.349206

>  <N_hits>  (206) 
2

>  <submitter_name>  (206) 
nan

>  <original SMILES>  (206) 
nan

>  <∆G_unbound>  (206) 
1.135199

>  <∆G_bound>  (206) 
-5.009627

>  <regarded>  (206) 
mArh-x0282_0_A,mArh-x1015_0_A

>  <ref_pdb>  (206) 
nan

>  <smiles>  (206) 
CC1C(=Nc2ccnc(N3CCC(CO)CC3)n2)NC(=O)N1c1ccc(Cl)cc1

>  <submitter_email>  (206) 
nan

>  <disregarded>  (206) 


>  <LE>  (206) 
-0.211891

>  <submitter_institution>  (206) 
nan

>  <ref_mols>  (206) 
mArh-x0282_0_A,mArh-x1015_0_A

>  <N_constrained_atoms>  (206) 
29.0

>  <ref_url>  (206) 
nan

>  <method>  (206) 
nan

>  <comRMSD>  (206) 
1.063671

>  <N_unconstrained_atoms>  (206) 
0.0

>  <∆∆G>  (206) 
-6.144826

>  <runtime>  (206) 
44.708789

>  <generation_date>  (206) 
nan

$$$$
mArh-mac-120_0_A-mArh-x0591_0_A
     RDKit          3D

 15 15  0  0  0  0  0  0  0  0999 V2000
   -6.8080   15.1530   -1.2360 C   0  0  0  0  0  0  0  0  0  0  0  0
   -7.4700   14.7230   -0.1820 C   0  0  0  0  0  0  0  0  0  0  0  0
   -6.9510   14.0870    0.9180 N   0  0  0  0  0  0  0  0  0  0  0  0
   -5.3750   14.9870   -1.3310 C   0  0  0  0  0  0  0  0  0  0  0  0
   -4.6580   14.9490   -0.1380 C   0  0  0  0  0  0  0  0  0  0  0  0
   -4.7190   14.8660   -2.5430 C   0  0  0  0  0  0  0  0  0  0  0  0
   -7.0270   14.5830    2.2750 C   0  0  0  0  0  0  0  0  0  0  0  0
   -3.2870   14.7870   -0.1690 C   0  0  0  0  0  0  0  0  0  0  0  0
   -3.3460   14.7080   -2.5130 C   0  0  0  0  0  0  0  0  0  0  0  0
   -2.5940   14.7540    1.0450 N   0  0  0  0  0  0  0  0  0  0  0  0
   -2.4900   14.5460   -4.1210 S   0  0  0  0  0  0  0  0  0  0  0  0
   -2.5940   14.6620   -1.3410 N   0  0  0  0  0  0  0  0  0  0  0  0
   -1.1240   15.5500   -4.0310 N   0  0  0  0  0  0  0  0  0  0  0  0
   -1.9950   13.1970   -4.2720 O   0  0  0  0  0  0  0  0  0  0  0  0
   -3.2970   15.1580   -5.1680 O   0  0  0  0  0  0  0  0  0  0  0  0
  1  2  2  3
  2  3  1  0
  1  4  1  0
  4  5  2  0
  4  6  1  0
  3  7  1  0
  5  8  1  0
  6  9  2  0
  8 10  1  0
  9 11  1  0
  8 12  2  0
  9 12  1  0
 11 13  1  0
 11 14  2  0
 11 15  2  0
M  END
>  <%Rank>  (207) 
81.746032

>  <N_hits>  (207) 
2

>  <submitter_name>  (207) 
nan

>  <original SMILES>  (207) 
nan

>  <∆G_unbound>  (207) 
0.55968

>  <∆G_bound>  (207) 
-3.889884

>  <regarded>  (207) 
mArh-mac-120_0_A,mArh-x0591_0_A

>  <ref_pdb>  (207) 
nan

>  <smiles>  (207) 
CNC=Cc1cc(N)nc(S(N)(=O)=O)c1

>  <submitter_email>  (207) 
nan

>  <disregarded>  (207) 


>  <LE>  (207) 
-0.296638

>  <submitter_institution>  (207) 
nan

>  <ref_mols>  (207) 
mArh-mac-120_0_A,mArh-x0591_0_A

>  <N_constrained_atoms>  (207) 
15.0

>  <ref_url>  (207) 
nan

>  <method>  (207) 
nan

>  <comRMSD>  (207) 
0.86198

>  <N_unconstrained_atoms>  (207) 
0.0

>  <∆∆G>  (207) 
-4.449564

>  <runtime>  (207) 
21.318859

>  <generation_date>  (207) 
nan

$$$$
mArh-6ywk_E_2_E-mArh-x1018_0_A
     RDKit          3D

 30 32  0  0  0  0  0  0  0  0999 V2000
    1.1710   20.6640   -7.5030 O   0  0  0  0  0  0  0  0  0  0  0  0
    0.0350   19.7660   -7.3440 S   0  0  2  0  0  0  0  0  0  0  0  0
   -0.0490   18.5130   -6.4790 N   0  0  0  0  0  0  0  0  0  0  0  0
    0.0050   18.8740   -8.6950 O   0  0  0  0  0  0  0  0  0  0  0  0
   -1.5370   20.6410   -7.3400 C   0  0  0  0  0  0  0  0  0  0  0  0
   -1.4110   22.0560   -7.8710 C   0  0  0  0  0  0  0  0  0  0  0  0
    1.0300   18.0400   -5.6220 C   0  0  0  0  0  0  0  0  0  0  0  0
    0.6350   16.7620   -4.8760 C   0  0  0  0  0  0  0  0  0  0  0  0
   -2.6690   22.7920   -8.2550 N   0  0  0  0  0  0  0  0  0  0  0  0
   -0.3770   16.9340   -3.7340 C   0  0  0  0  0  0  0  0  0  0  0  0
   -3.1700   23.7250   -7.2410 C   0  0  0  0  0  0  0  0  0  0  0  0
   -3.7660   22.0040   -8.8360 C   0  0  0  0  0  0  0  0  0  0  0  0
   -1.0330   15.6260   -3.2620 C   0  0  0  0  0  0  0  0  0  0  0  0
   -4.2630   23.2020   -6.2780 C   0  0  0  0  0  0  0  0  0  0  0  0
   -4.8960   21.5660   -7.8540 C   0  0  0  0  0  0  0  0  0  0  0  0
   -2.4670   15.7990   -2.7270 C   0  0  0  0  0  0  0  0  0  0  0  0
   -5.3860   22.6930   -7.0500 N   0  0  0  0  0  0  0  0  0  0  0  0
   -5.8500   23.7970   -7.8920 C   0  0  0  0  0  0  0  0  0  0  0  0
   -3.1120   14.5950   -2.1850 N   0  0  0  0  0  0  0  0  0  0  0  0
   -6.9150   23.6300   -8.9910 C   0  0  0  0  0  0  0  0  0  0  0  0
   -2.8950   14.5210   -0.7460 N   0  0  0  0  0  0  0  0  0  0  0  0
   -4.5380   14.6070   -2.3810 N   0  0  0  0  0  0  0  0  0  0  0  0
   -7.3100   22.2800   -9.2150 O   0  0  0  0  0  0  0  0  0  0  0  0
   -5.0520   15.1630   -1.2180 N   0  0  0  0  0  0  0  0  0  0  0  0
   -4.0090   15.3010   -0.2000 C   0  0  1  0  0  0  0  0  0  0  0  0
   -6.3910   14.9730   -0.9700 N   0  0  0  0  0  0  0  0  0  0  0  0
   -4.4860   14.8920    1.1520 C   0  0  0  0  0  0  0  0  0  0  0  0
   -6.7220   14.7210    0.2560 C   0  0  0  0  0  0  0  0  0  0  0  0
   -5.7830   14.6160    1.3900 C   0  0  0  0  0  0  0  0  0  0  0  0
   -8.4070   14.5020    0.5700 Cl  0  0  0  0  0  0  0  0  0  0  0  0
  1  2  2  0
  2  3  2  0
  2  4  1  6
  2  5  1  0
  5  6  1  0
  3  7  1  0
  7  8  1  0
  6  9  1  0
  8 10  1  0
  9 11  1  0
  9 12  1  0
 10 13  1  0
 11 14  1  0
 12 15  1  0
 13 16  1  0
 14 17  1  0
 15 17  1  0
 17 18  1  0
 16 19  1  0
 18 20  1  0
 19 21  1  0
 19 22  1  0
 20 23  1  0
 22 24  1  0
 21 25  1  0
 24 25  1  0
 24 26  1  0
 25 27  1  1
 26 28  2  0
 27 29  2  0
 28 29  1  0
 28 30  1  0
M  END
>  <%Rank>  (208) 
82.142857

>  <N_hits>  (208) 
2

>  <submitter_name>  (208) 
nan

>  <original SMILES>  (208) 
nan

>  <∆G_unbound>  (208) 
1.955371

>  <∆G_bound>  (208) 
-13.9561

>  <regarded>  (208) 
mArh-6ywk_E_2_E,mArh-x1018_0_A

>  <ref_pdb>  (208) 
nan

>  <smiles>  (208) 
O=S(O)(CCN1CCN(CCO)CC1)=NCCCCCN1NC2C=CC(Cl)=NN2N1

>  <submitter_email>  (208) 
nan

>  <disregarded>  (208) 


>  <LE>  (208) 
-0.530382

>  <submitter_institution>  (208) 
nan

>  <ref_mols>  (208) 
mArh-6ywk_E_2_E,mArh-x1018_0_A

>  <N_constrained_atoms>  (208) 
25.0

>  <ref_url>  (208) 
nan

>  <method>  (208) 
nan

>  <comRMSD>  (208) 
1.073055

>  <N_unconstrained_atoms>  (208) 
5.0

>  <∆∆G>  (208) 
-15.911471

>  <runtime>  (208) 
53.938328

>  <generation_date>  (208) 
nan

$$$$
mArh-1hjz_B_0_B-mArh-x0685_1_A
     RDKit          3D

 30 31  0  0  0  0  0  0  0  0999 V2000
    0.9210   21.0860   -7.6270 O   0  0  0  0  0  0  0  0  0  0  0  0
    0.0150   19.9590   -7.7690 S   0  0  0  0  0  0  0  0  0  0  0  0
    0.2810   18.8710   -8.6970 O   0  0  0  0  0  0  0  0  0  0  0  0
   -0.2170   19.2670   -6.3030 O   0  0  0  0  0  0  0  0  0  0  0  0
   -1.6350   20.5660   -8.0750 C   0  0  0  0  0  0  0  0  0  0  0  0
   -1.9770   21.8260   -7.3120 C   0  0  0  0  0  0  0  0  0  0  0  0
    0.8710   18.5220   -5.7220 C   0  0  0  0  0  0  0  0  0  0  0  0
    0.5660   17.0350   -5.6800 C   0  0  0  0  0  0  0  0  0  0  0  0
   -3.3840   22.2450   -7.5340 N   0  0  0  0  0  0  0  0  0  0  0  0
    0.5190   16.4600   -4.2650 C   0  0  0  0  0  0  0  0  0  0  0  0
   -3.6280   22.7060   -8.9000 C   0  0  0  0  0  0  0  0  0  0  0  0
   -3.7560   23.3620   -6.6370 C   0  0  0  0  0  0  0  0  0  0  0  0
    1.3130   15.1480   -4.0880 C   0  0  0  0  0  0  0  0  0  0  0  0
   -5.0630   23.1380   -9.1750 C   0  0  0  0  0  0  0  0  0  0  0  0
   -5.1910   23.8190   -6.8970 C   0  0  0  0  0  0  0  0  0  0  0  0
    0.7010   13.9200   -4.8000 C   0  0  0  0  0  0  0  0  0  0  0  0
   -5.4690   24.1540   -8.2650 O   0  0  0  0  0  0  0  0  0  0  0  0
   -0.2030   13.0250   -3.9060 C   0  0  1  0  0  0  0  0  0  0  0  0
   -1.1840   12.1650   -4.7300 C   0  0  0  0  0  0  0  0  0  0  0  0
    0.6990   12.0380   -2.6760 S   0  0  0  0  0  0  0  0  0  0  0  0
   -0.8030   10.7560   -4.9130 N   0  0  0  0  0  0  0  0  0  0  0  0
    2.1110   12.2860   -2.8650 O   0  0  0  0  0  0  0  0  0  0  0  0
    0.1610   10.6940   -2.4850 O   0  0  0  0  0  0  0  0  0  0  0  0
    0.2700   12.8130   -1.3270 O   0  0  0  0  0  0  0  0  0  0  0  0
   -1.1880   10.1430   -6.2030 C   0  0  0  0  0  0  0  0  0  0  0  0
   -0.1240    9.1660   -6.7150 C   0  0  0  0  0  0  0  0  0  0  0  0
   -1.4510   11.2070   -7.2780 C   0  0  0  0  0  0  0  0  0  0  0  0
   -0.5080    8.3750   -7.9470 C   0  0  0  0  0  0  0  0  0  0  0  0
   -1.0060   10.7480   -8.6750 C   0  0  0  0  0  0  0  0  0  0  0  0
   -1.2110    9.2560   -8.9650 C   0  0  0  0  0  0  0  0  0  0  0  0
  1  2  2  0
  2  3  2  0
  2  4  1  0
  2  5  1  0
  5  6  1  0
  4  7  1  0
  7  8  1  0
  6  9  1  0
  8 10  1  0
  9 11  1  0
  9 12  1  0
 10 13  1  0
 11 14  1  0
 12 15  1  0
 13 16  1  0
 14 17  1  0
 15 17  1  0
 18 16  1  6
 18 19  1  0
 18 20  1  0
 19 21  1  0
 20 22  2  0
 20 23  2  0
 20 24  1  0
 21 25  1  0
 25 26  1  0
 25 27  1  0
 26 28  1  0
 27 29  1  0
 28 30  1  0
 29 30  1  0
M  END
>  <%Rank>  (209) 
82.539683

>  <N_hits>  (209) 
2

>  <submitter_name>  (209) 
nan

>  <original SMILES>  (209) 
nan

>  <∆G_unbound>  (209) 
0.450561

>  <∆G_bound>  (209) 
-14.783357

>  <regarded>  (209) 
mArh-1hjz_B_0_B,mArh-x0685_1_A

>  <ref_pdb>  (209) 
nan

>  <smiles>  (209) 
O=S(=O)(CCN1CCOCC1)OCCCCCC(CNC1CCCCC1)S(=O)(=O)O

>  <submitter_email>  (209) 
nan

>  <disregarded>  (209) 


>  <LE>  (209) 
-0.507797

>  <submitter_institution>  (209) 
nan

>  <ref_mols>  (209) 
mArh-1hjz_B_0_B,mArh-x0685_1_A

>  <N_constrained_atoms>  (209) 
25.0

>  <ref_url>  (209) 
nan

>  <method>  (209) 
nan

>  <comRMSD>  (209) 
1.070928

>  <N_unconstrained_atoms>  (209) 
5.0

>  <∆∆G>  (209) 
-15.233918

>  <runtime>  (209) 
64.134992

>  <generation_date>  (209) 
nan

$$$$
mArh-5cms_H_7_H-mArh-6woj_C_0_C
     RDKit          3D

 46 52  0  0  0  0  0  0  0  0999 V2000
   -1.9920   17.6630   -5.9690 P   0  0  1  0  0  0  0  0  0  0  0  0
   -0.4350   17.1760   -5.9430 N   0  0  0  0  0  0  0  0  0  0  0  0
    0.0590   16.8550   -4.7430 C   0  0  2  0  0  0  0  0  0  0  0  0
   -3.0800   16.5520   -5.9080 O   0  0  0  0  0  0  0  0  0  0  0  0
   -2.2270   18.8970   -4.8650 O   0  0  0  0  0  0  0  0  0  0  0  0
   -2.2130   18.2380   -7.4170 O   0  0  0  0  0  0  0  0  0  0  0  0
   -0.8270   19.1470   -7.8870 P   0  0  0  0  0  0  0  0  0  0  0  0
    0.3730   18.0020   -6.6450 O   0  0  0  0  0  0  0  0  0  0  0  0
    0.4260   19.3690   -6.6970 C   0  0  0  0  0  0  0  0  0  0  0  0
   -0.0430   18.4360   -9.1480 O   0  0  0  0  0  0  0  0  0  0  0  0
   -1.7140   20.4950   -8.4860 O   0  0  0  0  0  0  0  0  0  0  0  0
    1.0360   17.8400   -4.2520 C   0  0  0  0  0  0  0  0  0  0  0  0
    0.5450   15.5100   -4.4510 C   0  0  1  0  0  0  0  0  0  0  0  0
   -1.9420   21.4790   -7.6410 C   0  0  1  0  0  0  0  0  0  0  0  0
    0.1760   20.5320   -7.0640 O   0  0  0  0  0  0  0  0  0  0  0  0
    0.5630   15.3050   -3.0370 O   0  0  0  0  0  0  0  0  0  0  0  0
   -0.0160   14.3390   -5.1300 C   0  0  1  0  0  0  0  0  0  0  0  0
    0.9950   13.5280   -5.6580 O   0  0  0  0  0  0  0  0  0  0  0  0
   -0.5730   13.4560   -4.0130 C   0  0  1  0  0  0  0  0  0  0  0  0
   -0.2760   14.2140   -2.7410 C   0  0  2  0  0  0  0  0  0  0  0  0
   -2.2580   22.4310   -8.6810 C   0  0  1  0  0  0  0  0  0  0  0  0
   -3.1550   21.6770   -6.7960 C   0  0  1  0  0  0  0  0  0  0  0  0
   -1.9270   13.3050   -4.1370 O   0  0  0  0  0  0  0  0  0  0  0  0
   -3.6390   22.4040   -9.4170 C   0  0  1  0  0  0  0  0  0  0  0  0
   -2.1190   23.7430   -8.1270 C   0  0  2  0  0  0  0  0  0  0  0  0
   -1.4620   14.5700   -1.9780 N   0  0  0  0  0  0  0  0  0  0  0  0
   -3.8940   22.6690   -7.5480 C   0  0  1  0  0  0  0  0  0  0  0  0
   -4.1050   20.7970   -6.5490 O   0  0  0  0  0  0  0  0  0  0  0  0
   -4.4880   21.9630   -8.5670 O   0  0  0  0  0  0  0  0  0  0  0  0
   -1.2680   23.5250   -7.0890 O   0  0  0  0  0  0  0  0  0  0  0  0
   -4.1570   23.7750   -9.3090 C   0  0  1  0  0  0  0  0  0  0  0  0
   -1.3690   14.6170   -0.6490 C   0  0  0  0  0  0  0  0  0  0  0  0
   -2.7230   14.8820   -2.2870 C   0  0  0  0  0  0  0  0  0  0  0  0
   -5.2510   21.6050   -6.3240 C   0  0  2  0  0  0  0  0  0  0  0  0
   -4.7530   23.0120   -6.4130 C   0  0  2  0  0  0  0  0  0  0  0  0
   -3.5360   24.1200   -7.9240 C   0  0  0  0  0  0  0  0  0  0  0  0
   -3.8160   24.5510  -10.4240 O   0  0  0  0  0  0  0  0  0  0  0  0
   -5.8030   21.3520   -5.1040 O   0  0  0  0  0  0  0  0  0  0  0  0
   -5.7340   23.9410   -6.7200 O   0  0  0  0  0  0  0  0  0  0  0  0
   -2.5910   14.9590   -0.0920 C   0  0  0  0  0  0  0  0  0  0  0  0
   -0.3450   14.4010    0.2050 N   0  0  0  0  0  0  0  0  0  0  0  0
   -3.4230   15.1230   -1.1370 N   0  0  0  0  0  0  0  0  0  0  0  0
   -2.7720   15.0720    1.2620 C   0  0  0  0  0  0  0  0  0  0  0  0
   -0.4970   14.4940    1.5210 C   0  0  0  0  0  0  0  0  0  0  0  0
   -3.9760   15.4230    1.8890 N   0  0  0  0  0  0  0  0  0  0  0  0
   -1.6960   14.8160    2.0100 N   0  0  0  0  0  0  0  0  0  0  0  0
  1  2  1  0
  2  3  1  0
  1  4  2  0
  1  5  1  1
  1  6  1  0
  6  7  1  0
  2  8  1  0
  7  9  1  0
  8  9  1  0
  7 10  1  0
  7 11  1  0
  3 12  1  6
  3 13  1  0
 14 11  1  6
  9 15  2  0
 13 16  1  1
 13 17  1  0
 17 18  1  1
 17 19  1  0
 16 20  1  0
 19 20  1  0
 14 21  1  0
 14 22  1  0
 19 23  1  6
 21 24  1  0
 21 25  1  1
 20 26  1  6
 22 27  1  0
 22 28  1  6
 24 29  1  1
 27 29  1  6
 25 30  1  1
 24 31  1  0
 26 32  1  0
 26 33  1  0
 28 34  1  0
 27 35  1  0
 34 35  1  0
 25 36  1  0
 31 36  1  0
 31 37  1  6
 34 38  1  1
 35 39  1  6
 32 40  2  0
 32 41  1  0
 33 42  2  0
 40 42  1  0
 40 43  1  0
 41 44  2  0
 43 45  1  0
 43 46  2  0
 44 46  1  0
M  END
>  <%Rank>  (210) 
82.936508

>  <N_hits>  (210) 
2

>  <submitter_name>  (210) 
nan

>  <original SMILES>  (210) 
nan

>  <∆G_unbound>  (210) 
11.570334

>  <∆G_bound>  (210) 
6.924235

>  <regarded>  (210) 
mArh-5cms_H_7_H,mArh-6woj_C_0_C

>  <ref_pdb>  (210) 
nan

>  <smiles>  (210) 
CC(C1OC(n2cnc3c(N)ncnc32)C(O)C1O)N1OC(=O)[PH](O)(OC2C3OC(O)C(O)C3OC3C(O)CC(O)C32)O[P@]1(=O)O

>  <submitter_email>  (210) 
nan

>  <disregarded>  (210) 


>  <LE>  (210) 
-0.101002

>  <submitter_institution>  (210) 
nan

>  <ref_mols>  (210) 
mArh-5cms_H_7_H,mArh-6woj_C_0_C

>  <N_constrained_atoms>  (210) 
43.0

>  <ref_url>  (210) 
nan

>  <method>  (210) 
nan

>  <comRMSD>  (210) 
1.135378

>  <N_unconstrained_atoms>  (210) 
3.0

>  <∆∆G>  (210) 
-4.646099

>  <runtime>  (210) 
58.025162

>  <generation_date>  (210) 
nan

$$$$
mArh-x0844_0_A-mArh-x0933_0_A
     RDKit          3D

  8  8  0  0  0  0  0  0  0  0999 V2000
   -7.6090   14.8600    0.0100 O   0  0  0  0  0  0  0  0  0  0  0  0
   -6.3800   14.8190   -0.0100 C   0  0  0  0  0  0  0  0  0  0  0  0
   -5.6500   14.8330    1.1570 N   0  0  0  0  0  0  0  0  0  0  0  0
   -5.5980   14.7490   -1.3040 C   0  0  0  0  0  0  0  0  0  0  0  0
   -4.3000   14.9890    1.1970 C   0  0  0  0  0  0  0  0  0  0  0  0
   -4.2190   15.3690   -1.2000 C   0  0  2  0  0  0  0  0  0  0  0  0
   -3.0480   14.6310   -2.5780 Br  0  0  0  0  0  0  0  0  0  0  0  0
   -3.5610   15.2360    0.1270 C   0  0  0  0  0  0  0  0  0  0  0  0
  1  2  2  0
  2  3  1  0
  2  4  1  0
  3  5  1  0
  4  6  1  0
  6  7  1  6
  5  8  2  0
  6  8  1  0
M  END
>  <%Rank>  (211) 
83.333333

>  <N_hits>  (211) 
2

>  <submitter_name>  (211) 
nan

>  <original SMILES>  (211) 
nan

>  <∆G_unbound>  (211) 
0.089057

>  <∆G_bound>  (211) 
-2.623679

>  <regarded>  (211) 
mArh-x0844_0_A,mArh-x0933_0_A

>  <ref_pdb>  (211) 
nan

>  <smiles>  (211) 
O=C1CC(Br)C=CN1

>  <submitter_email>  (211) 
nan

>  <disregarded>  (211) 


>  <LE>  (211) 
-0.339092

>  <submitter_institution>  (211) 
nan

>  <ref_mols>  (211) 
mArh-x0844_0_A,mArh-x0933_0_A

>  <N_constrained_atoms>  (211) 
8.0

>  <ref_url>  (211) 
nan

>  <method>  (211) 
nan

>  <comRMSD>  (211) 
0.721495

>  <N_unconstrained_atoms>  (211) 
0.0

>  <∆∆G>  (211) 
-2.712737

>  <runtime>  (211) 
12.847516

>  <generation_date>  (211) 
nan

$$$$
mArh-5cms_K_10_K-mArh-5l9k_B_0_B
     RDKit          3D

 44 48  0  0  0  0  0  0  0  0999 V2000
   -1.6420   18.1420   -5.8500 P   0  0  1  0  0  0  0  0  0  0  0  0
   -0.6970   17.3540   -4.8160 O   0  0  0  0  0  0  0  0  0  0  0  0
    0.5370   16.7640   -5.2310 C   0  0  0  0  0  0  0  0  0  0  0  0
   -2.4990   17.3410   -6.7280 O   0  0  0  0  0  0  0  0  0  0  0  0
   -2.4470   19.0660   -4.8540 O   0  0  0  0  0  0  0  0  0  0  0  0
   -1.0000   19.4300   -6.4180 O   0  0  0  0  0  0  0  0  0  0  0  0
   -1.2780   20.1640   -7.7840 P   0  0  1  0  0  0  0  0  0  0  0  0
   -0.0900   21.0600   -7.9200 O   0  0  0  0  0  0  0  0  0  0  0  0
   -1.0340   18.8770   -8.7120 O   0  0  0  0  0  0  0  0  0  0  0  0
   -2.8870   20.9280   -8.0280 O   0  0  0  0  0  0  0  0  0  0  0  0
    0.8670   15.4570   -4.4590 C   0  0  1  0  0  0  0  0  0  0  0  0
   -4.1910   21.3020   -9.0050 C   0  0  2  0  0  0  0  0  0  0  0  0
    0.2340   15.4550   -3.1640 O   0  0  0  0  0  0  0  0  0  0  0  0
    0.3960   14.1490   -5.1470 C   0  0  1  0  0  0  0  0  0  0  0  0
    1.3660   13.1020   -5.0710 O   0  0  0  0  0  0  0  0  0  0  0  0
   -0.8630   13.7160   -4.3810 C   0  0  2  0  0  0  0  0  0  0  0  0
   -1.0640   14.9190   -3.4630 C   0  0  1  0  0  0  0  0  0  0  0  0
   -4.3870   22.0540  -10.5470 C   0  0  2  0  0  0  0  0  0  0  0  0
   -4.9140   22.1020   -8.1070 C   0  0  2  0  0  0  0  0  0  0  0  0
   -0.5890   12.4730   -3.7430 O   0  0  0  0  0  0  0  0  0  0  0  0
   -4.1510   23.6610  -10.7900 C   0  0  1  0  0  0  0  0  0  0  0  0
   -5.5850   21.9080  -11.2580 O   0  0  0  0  0  0  0  0  0  0  0  0
   -1.9550   14.9210   -2.3170 N   0  0  0  0  0  0  0  0  0  0  0  0
   -4.4620   23.5280   -7.9870 C   0  0  1  0  0  0  0  0  0  0  0  0
   -4.6480   21.3750   -6.9740 O   0  0  0  0  0  0  0  0  0  0  0  0
   -3.0450   24.1140  -11.5950 O   0  0  0  0  0  0  0  0  0  0  0  0
   -5.3600   24.3330   -8.7470 O   0  0  0  0  0  0  0  0  0  0  0  0
   -5.3290   22.7450  -12.3520 C   0  0  2  0  0  0  0  0  0  0  0  0
   -5.2280   24.0800  -11.6670 C   0  0  2  0  0  0  0  0  0  0  0  0
   -1.6750   14.8160   -0.9580 C   0  0  0  0  0  0  0  0  0  0  0  0
   -3.3100   15.0740   -2.4430 C   0  0  0  0  0  0  0  0  0  0  0  0
   -4.8630   22.2820   -6.0060 C   0  0  1  0  0  0  0  0  0  0  0  0
   -4.6170   23.7140   -6.5200 C   0  0  2  0  0  0  0  0  0  0  0  0
   -6.4050   22.7080  -13.2340 O   0  0  0  0  0  0  0  0  0  0  0  0
   -4.6450   25.1220  -12.4730 O   0  0  0  0  0  0  0  0  0  0  0  0
   -6.2180   22.0830   -5.8060 O   0  0  0  0  0  0  0  0  0  0  0  0
   -5.7520   24.5300   -6.3300 O   0  0  0  0  0  0  0  0  0  0  0  0
   -2.9260   14.9470   -0.3660 C   0  0  0  0  0  0  0  0  0  0  0  0
   -0.4930   14.6490   -0.3090 N   0  0  0  0  0  0  0  0  0  0  0  0
   -3.9270   15.0950   -1.2910 N   0  0  0  0  0  0  0  0  0  0  0  0
   -2.9810   14.9210    1.0280 C   0  0  0  0  0  0  0  0  0  0  0  0
   -0.6810   14.6210    1.0380 C   0  0  0  0  0  0  0  0  0  0  0  0
   -4.1880   15.0850    1.6810 N   0  0  0  0  0  0  0  0  0  0  0  0
   -1.8360   14.7410    1.7330 N   0  0  0  0  0  0  0  0  0  0  0  0
  1  2  1  0
  2  3  1  0
  1  4  2  0
  1  5  1  1
  1  6  1  0
  6  7  1  0
  7  8  2  0
  7  9  1  6
  7 10  1  0
 11  3  1  6
 12 10  1  1
 11 13  1  0
 11 14  1  0
 14 15  1  1
 14 16  1  0
 13 17  1  0
 16 17  1  0
 12 18  1  0
 12 19  1  0
 16 20  1  1
 18 21  1  0
 18 22  1  1
 17 23  1  1
 19 24  1  0
 19 25  1  1
 21 26  1  6
 24 27  1  6
 22 28  1  0
 21 29  1  0
 28 29  1  0
 23 30  1  0
 23 31  1  0
 25 32  1  0
 24 33  1  0
 32 33  1  0
 28 34  1  6
 29 35  1  6
 32 36  1  6
 33 37  1  6
 30 38  2  0
 30 39  1  0
 31 40  2  0
 38 40  1  0
 38 41  1  0
 39 42  2  0
 41 43  1  0
 41 44  2  0
 42 44  1  0
M  END
>  <%Rank>  (212) 
83.730159

>  <N_hits>  (212) 
2

>  <submitter_name>  (212) 
nan

>  <original SMILES>  (212) 
nan

>  <∆G_unbound>  (212) 
6.519983

>  <∆G_bound>  (212) 
-0.654711

>  <regarded>  (212) 
mArh-5cms_K_10_K,mArh-5l9k_B_0_B

>  <ref_pdb>  (212) 
nan

>  <smiles>  (212) 
Nc1ncnc2c1ncn2C1OC(CO[P@@](=O)(O)O[P@@](=O)(O)OC(C2OC(O)C(O)C2O)C2OC(O)C(O)C2O)C(O)C1O

>  <submitter_email>  (212) 
nan

>  <disregarded>  (212) 


>  <LE>  (212) 
-0.163061

>  <submitter_institution>  (212) 
nan

>  <ref_mols>  (212) 
mArh-5cms_K_10_K,mArh-5l9k_B_0_B

>  <N_constrained_atoms>  (212) 
44.0

>  <ref_url>  (212) 
nan

>  <method>  (212) 
nan

>  <comRMSD>  (212) 
1.247279

>  <N_unconstrained_atoms>  (212) 
0.0

>  <∆∆G>  (212) 
-7.174695

>  <runtime>  (212) 
46.844815

>  <generation_date>  (212) 
nan

$$$$
mArh-mac-242_0_A-mArh-5cms_B_1_B
     RDKit          3D

 36 39  0  0  0  0  0  0  0  0999 V2000
   -3.7140   13.8200    1.3630 N   0  0  0  0  0  0  0  0  0  0  0  0
   -2.6330   14.7640    1.1870 C   0  0  1  0  0  0  0  0  0  0  0  0
   -1.3610   14.4010    1.7510 N   0  0  0  0  0  0  0  0  0  0  0  0
   -2.5280   15.1790   -0.3060 C   0  0  1  0  0  0  0  0  0  0  0  0
   -1.1400   14.9260   -1.0370 C   0  0  1  0  0  0  0  0  0  0  0  0
   -0.3310   13.8660    1.0490 C   0  0  0  0  0  0  0  0  0  0  0  0
   -3.7590   14.6650   -1.0570 C   0  0  0  0  0  0  0  0  0  0  0  0
   -0.1590   14.0580   -0.2580 C   0  0  0  0  0  0  0  0  0  0  0  0
   -1.2340   14.8870   -2.6490 C   0  0  1  0  0  0  0  0  0  0  0  0
   -3.7460   15.0960   -2.4630 C   0  0  0  0  0  0  0  0  0  0  0  0
   -2.6250   15.1990   -3.1640 C   0  0  0  0  0  0  0  0  0  0  0  0
   -0.4030   15.9640   -3.1350 O   0  0  0  0  0  0  0  0  0  0  0  0
   -0.6720   13.7140   -3.5460 C   0  0  2  0  0  0  0  0  0  0  0  0
    0.2560   12.7840   -3.0110 O   0  0  0  0  0  0  0  0  0  0  0  0
   -0.4360   15.8790   -4.5630 C   0  0  2  0  0  0  0  0  0  0  0  0
   -0.1780   14.3880   -4.8430 C   0  0  1  0  0  0  0  0  0  0  0  0
    0.5390   16.8760   -5.2000 C   0  0  0  0  0  0  0  0  0  0  0  0
    1.1590   14.0180   -5.1630 O   0  0  0  0  0  0  0  0  0  0  0  0
   -0.0570   17.6700   -6.2500 O   0  0  0  0  0  0  0  0  0  0  0  0
   -1.5590   18.2310   -6.1420 P   0  0  1  0  0  0  0  0  0  0  0  0
   -2.5760   17.3010   -6.6590 O   0  0  0  0  0  0  0  0  0  0  0  0
   -1.7570   18.4100   -4.5700 O   0  0  0  0  0  0  0  0  0  0  0  0
   -1.6580   19.7320   -6.6940 O   0  0  0  0  0  0  0  0  0  0  0  0
   -0.9450   20.2770   -8.0130 P   0  0  1  0  0  0  0  0  0  0  0  0
    0.3490   20.9890   -7.8500 O   0  0  0  0  0  0  0  0  0  0  0  0
   -0.5860   18.8660   -8.7160 O   0  0  0  0  0  0  0  0  0  0  0  0
   -2.0720   20.9260   -9.0400 O   0  0  0  0  0  0  0  0  0  0  0  0
   -2.9510   22.0410   -8.7000 C   0  0  0  0  0  0  0  0  0  0  0  0
   -4.1720   22.5810   -9.6520 C   0  0  2  0  0  0  0  0  0  0  0  0
   -4.5640   22.2800  -11.1740 C   0  0  1  0  0  0  0  0  0  0  0  0
   -4.0250   24.0280   -9.6710 O   0  0  0  0  0  0  0  0  0  0  0  0
   -5.8150   21.7730  -11.4810 O   0  0  0  0  0  0  0  0  0  0  0  0
   -4.4490   24.6380  -10.9280 C   0  0  2  0  0  0  0  0  0  0  0  0
   -4.6540   23.5740  -11.9770 C   0  0  2  0  0  0  0  0  0  0  0  0
   -3.4080   25.4530  -11.4580 O   0  0  0  0  0  0  0  0  0  0  0  0
   -5.8430   23.6900  -12.7020 O   0  0  0  0  0  0  0  0  0  0  0  0
  2  1  1  6
  2  3  1  0
  2  4  1  0
  4  5  1  0
  3  6  1  0
  4  7  1  6
  5  8  1  1
  6  8  2  0
  5  9  1  0
  7 10  1  0
  9 11  1  1
 10 11  2  0
  9 12  1  0
  9 13  1  0
 13 14  1  1
 12 15  1  0
 13 16  1  0
 15 16  1  0
 15 17  1  6
 16 18  1  1
 17 19  1  0
 19 20  1  0
 20 21  2  0
 20 22  1  1
 20 23  1  0
 23 24  1  0
 24 25  2  0
 24 26  1  6
 24 27  1  0
 27 28  1  0
 29 28  1  6
 29 30  1  0
 29 31  1  0
 30 32  1  1
 31 33  1  0
 30 34  1  0
 33 34  1  0
 33 35  1  6
 34 36  1  1
M  END
>  <%Rank>  (213) 
84.126984

>  <N_hits>  (213) 
2

>  <submitter_name>  (213) 
nan

>  <original SMILES>  (213) 
nan

>  <∆G_unbound>  (213) 
2.336908

>  <∆G_bound>  (213) 
-9.200389

>  <regarded>  (213) 
mArh-mac-242_0_A,mArh-5cms_B_1_B

>  <ref_pdb>  (213) 
nan

>  <smiles>  (213) 
NC1NC=CC2C1CC=CC21OC(CO[P@@](=O)(O)O[P@@](=O)(O)OCC2OC(O)C(O)C2O)C(O)C1O

>  <submitter_email>  (213) 
nan

>  <disregarded>  (213) 


>  <LE>  (213) 
-0.32048

>  <submitter_institution>  (213) 
nan

>  <ref_mols>  (213) 
mArh-mac-242_0_A,mArh-5cms_B_1_B

>  <N_constrained_atoms>  (213) 
36.0

>  <ref_url>  (213) 
nan

>  <method>  (213) 
nan

>  <comRMSD>  (213) 
1.278135

>  <N_unconstrained_atoms>  (213) 
0.0

>  <∆∆G>  (213) 
-11.537297

>  <runtime>  (213) 
48.580698

>  <generation_date>  (213) 
nan

$$$$
mArh-5cms_P_15_P-mArh-x0711_0_A
     RDKit          3D

 43 47  0  0  0  0  0  0  0  0999 V2000
   -1.6820   18.1580   -6.1050 P   0  0  1  0  0  0  0  0  0  0  0  0
   -0.3740   17.2500   -6.1990 O   0  0  0  0  0  0  0  0  0  0  0  0
    0.7650   17.3930   -5.3670 C   0  0  0  0  0  0  0  0  0  0  0  0
   -2.8410   17.5330   -6.7740 O   0  0  0  0  0  0  0  0  0  0  0  0
   -1.8340   18.3990   -4.5360 O   0  0  0  0  0  0  0  0  0  0  0  0
   -1.2640   19.5480   -6.6970 O   0  0  0  0  0  0  0  0  0  0  0  0
   -0.0610   19.8400   -7.6620 P   0  0  1  0  0  0  0  0  0  0  0  0
    1.2940   19.9390   -7.0730 O   0  0  0  0  0  0  0  0  0  0  0  0
   -0.1620   18.6130   -8.6970 O   0  0  0  0  0  0  0  0  0  0  0  0
   -0.5700   21.1690   -8.4220 O   0  0  0  0  0  0  0  0  0  0  0  0
    0.9950   16.1630   -4.4860 C   0  0  1  0  0  0  0  0  0  0  0  0
   -1.8370   20.9480   -8.9550 C   0  0  0  0  0  0  0  0  0  0  0  0
    0.3130   16.3320   -3.2040 O   0  0  0  0  0  0  0  0  0  0  0  0
    0.4480   14.9240   -5.1490 C   0  0  1  0  0  0  0  0  0  0  0  0
    1.1890   13.7320   -4.8960 O   0  0  0  0  0  0  0  0  0  0  0  0
   -0.9530   14.9160   -4.6340 C   0  0  2  0  0  0  0  0  0  0  0  0
   -0.6570   15.2880   -3.0700 C   0  0  2  0  0  0  0  0  0  0  0  0
   -2.9240   21.9840   -9.2090 C   0  0  1  0  0  0  0  0  0  0  0  0
   -1.3200   13.6080   -4.7710 O   0  0  0  0  0  0  0  0  0  0  0  0
   -2.7150   23.4740   -9.0280 C   0  0  1  0  0  0  0  0  0  0  0  0
   -3.3670   21.7750  -10.5630 O   0  0  0  0  0  0  0  0  0  0  0  0
   -1.6990   15.5890   -2.0180 N   0  0  0  0  0  0  0  0  0  0  0  0
   -1.3130   23.7410   -9.0000 O   0  0  0  0  0  0  0  0  0  0  0  0
   -1.0670   13.4910   -3.2810 S   0  0  0  0  0  0  0  0  0  0  0  0
   -4.1690   22.8640  -10.9570 C   0  0  2  0  0  0  0  0  0  0  0  0
   -3.6350   24.0510  -10.2070 C   0  0  2  0  0  0  0  0  0  0  0  0
   -1.3860   15.7740   -0.6260 C   0  0  1  0  0  0  0  0  0  0  0  0
   -2.5830   14.5530   -1.7250 C   0  0  2  0  0  0  0  0  0  0  0  0
   -5.5100   22.6610  -10.6170 O   0  0  0  0  0  0  0  0  0  0  0  0
   -3.1450   25.0260  -11.1540 O   0  0  0  0  0  0  0  0  0  0  0  0
   -2.6770   13.8800   -2.9000 N   0  0  0  0  0  0  0  0  0  0  0  0
   -0.2700   14.6550   -3.0110 O   0  0  0  0  0  0  0  0  0  0  0  0
   -0.5220   12.2070   -2.9590 O   0  0  0  0  0  0  0  0  0  0  0  0
   -2.6790   15.6660    0.0220 C   0  0  1  0  0  0  0  0  0  0  0  0
   -0.4460   14.6740   -0.3100 N   0  0  0  0  0  0  0  0  0  0  0  0
   -3.6330   15.2600   -1.0350 N   0  0  0  0  0  0  0  0  0  0  0  0
   -4.9590   14.8570   -0.6550 C   0  0  0  0  0  0  0  0  0  0  0  0
   -2.7310   14.8380    1.0970 C   0  0  2  0  0  0  0  0  0  0  0  0
   -0.2640   14.4620    1.1100 C   0  0  0  0  0  0  0  0  0  0  0  0
   -3.6610   15.3870    2.0670 N   0  0  0  0  0  0  0  0  0  0  0  0
   -5.2110   14.5550    0.6550 N   0  0  0  0  0  0  0  0  0  0  0  0
   -5.9360   14.7740   -1.4010 O   0  0  0  0  0  0  0  0  0  0  0  0
   -1.4930   14.6920    1.8110 N   0  0  0  0  0  0  0  0  0  0  0  0
  1  2  1  0
  2  3  1  0
  1  4  2  0
  1  5  1  1
  1  6  1  0
  6  7  1  0
  7  8  2  0
  7  9  1  6
  7 10  1  0
 11  3  1  6
 10 12  1  0
 11 13  1  0
 11 14  1  0
 14 15  1  1
 14 16  1  0
 17 13  1  6
 16 17  1  0
 18 12  1  6
 16 19  1  1
 18 20  1  0
 18 21  1  0
 17 22  1  0
 20 23  1  6
 24 19  1  0
 21 25  1  0
 20 26  1  0
 25 26  1  0
 22 27  1  0
 22 28  1  0
 25 29  1  1
 26 30  1  6
 24 31  1  0
 28 31  1  6
 24 32  2  0
 24 33  2  0
 27 34  1  0
 27 35  1  1
 28 36  1  0
 34 36  1  6
 36 37  1  0
 34 38  1  0
 35 39  1  0
 38 40  1  1
 37 41  1  0
 37 42  2  0
 38 43  1  0
 39 43  1  0
M  END
>  <%Rank>  (214) 
84.52381

>  <N_hits>  (214) 
2

>  <submitter_name>  (214) 
nan

>  <original SMILES>  (214) 
nan

>  <∆G_unbound>  (214) 
8.582014

>  <∆G_bound>  (214) 
7.364516

>  <regarded>  (214) 
mArh-5cms_P_15_P,mArh-x0711_0_A

>  <ref_pdb>  (214) 
nan

>  <smiles>  (214) 
NC(=O)N1C2C(N)NCNC2N2C3OC(CO[P@@](=O)(O)O[P@@](=O)(O)OCC4OC(O)C(O)C4O)C(O)C3OS(=O)(=O)NC12

>  <submitter_email>  (214) 
nan

>  <disregarded>  (214) 


>  <LE>  (214) 
-0.028314

>  <submitter_institution>  (214) 
nan

>  <ref_mols>  (214) 
mArh-5cms_P_15_P,mArh-x0711_0_A

>  <N_constrained_atoms>  (214) 
43.0

>  <ref_url>  (214) 
nan

>  <method>  (214) 
nan

>  <comRMSD>  (214) 
1.208366

>  <N_unconstrained_atoms>  (214) 
0.0

>  <∆∆G>  (214) 
-1.217498

>  <runtime>  (214) 
39.437441

>  <generation_date>  (214) 
nan

$$$$
mArh-x0524_0_A-mArh-x0895_0_A
     RDKit          3D

 30 32  0  0  0  0  0  0  0  0999 V2000
   -0.3130    8.4960   -7.9560 N   0  0  0  0  0  0  0  0  0  0  0  0
   -0.7030    9.5170   -7.1080 C   0  0  0  0  0  0  0  0  0  0  0  0
   -1.6510    9.0040   -6.0300 C   0  0  0  0  0  0  0  0  0  0  0  0
    0.6820    8.5350   -8.9490 C   0  0  0  0  0  0  0  0  0  0  0  0
   -0.3610   10.6920   -7.1770 O   0  0  0  0  0  0  0  0  0  0  0  0
    1.8440    7.7560   -8.8870 C   0  0  0  0  0  0  0  0  0  0  0  0
    0.4670    9.3950  -10.0270 C   0  0  0  0  0  0  0  0  0  0  0  0
   -1.9250   10.0360   -4.9300 C   0  0  0  0  0  0  0  0  0  0  0  0
    2.8370    7.7870   -9.8810 C   0  0  0  0  0  0  0  0  0  0  0  0
    1.4930    9.5050  -11.1680 C   0  0  0  0  0  0  0  0  0  0  0  0
   -0.6600   10.4520   -4.1560 C   0  0  0  0  0  0  0  0  0  0  0  0
    2.7510    8.5980  -11.0140 C   0  0  0  0  0  0  0  0  0  0  0  0
    3.7390    8.6300  -12.0090 N   0  0  0  0  0  0  0  0  0  0  0  0
   -1.0260   11.2350   -2.8970 C   0  0  0  0  0  0  0  0  0  0  0  0
   -2.0720   12.1970   -3.4440 C   0  0  0  0  0  0  0  0  0  0  0  0
    3.9980    9.5280  -13.0530 C   0  0  0  0  0  0  0  0  0  0  0  0
   -2.2590   13.2880   -2.3550 C   0  0  0  0  0  0  0  0  0  0  0  0
    3.2450   10.6850  -13.2810 C   0  0  0  0  0  0  0  0  0  0  0  0
    5.0470    9.2600  -13.8930 C   0  0  0  0  0  0  0  0  0  0  0  0
   -3.0760   14.4870   -2.8730 C   0  0  0  0  0  0  0  0  0  0  0  0
    3.5500   11.5480  -14.3330 C   0  0  0  0  0  0  0  0  0  0  0  0
    5.3660   10.1110  -14.9530 C   0  0  0  0  0  0  0  0  0  0  0  0
   -4.0660   14.8900   -1.8790 N   0  0  0  0  0  0  0  0  0  0  0  0
    4.6150   11.2580  -15.1730 C   0  0  0  0  0  0  0  0  0  0  0  0
   -3.7620   14.8800   -0.6490 C   0  0  0  0  0  0  0  0  0  0  0  0
   -4.5970   15.2290    0.3600 N   0  0  0  0  0  0  0  0  0  0  0  0
   -2.5650   14.5250   -0.1370 N   0  0  0  0  0  0  0  0  0  0  0  0
   -3.7770   15.6760    1.4570 C   0  0  0  0  0  0  0  0  0  0  0  0
   -2.5030   14.8640    1.1810 C   0  0  0  0  0  0  0  0  0  0  0  0
   -1.5960   14.5710    1.9480 O   0  0  0  0  0  0  0  0  0  0  0  0
  1  2  1  0
  2  3  1  0
  1  4  1  0
  2  5  2  0
  4  6  2  0
  4  7  1  0
  3  8  1  0
  6  9  1  0
  7 10  2  0
  8 11  1  0
  9 12  2  0
 10 12  1  0
 12 13  1  0
 11 14  1  0
 14 15  1  0
 13 16  1  0
 15 17  1  0
 16 18  2  0
 16 19  1  0
 17 20  1  0
 18 21  1  0
 19 22  2  0
 20 23  1  0
 21 24  2  0
 22 24  1  0
 23 25  2  3
 25 26  1  0
 25 27  1  0
 26 28  1  0
 27 29  1  0
 28 29  1  0
 29 30  2  0
M  END
>  <%Rank>  (215) 
84.920635

>  <N_hits>  (215) 
2

>  <submitter_name>  (215) 
nan

>  <original SMILES>  (215) 
nan

>  <∆G_unbound>  (215) 
0.073244

>  <∆G_bound>  (215) 
-9.518061

>  <regarded>  (215) 
mArh-x0524_0_A,mArh-x0895_0_A

>  <ref_pdb>  (215) 
nan

>  <smiles>  (215) 
O=C1CNC(=NCCCCCCCC(=O)Nc2ccc(Nc3ccccc3)cc2)N1

>  <submitter_email>  (215) 
nan

>  <disregarded>  (215) 


>  <LE>  (215) 
-0.31971

>  <submitter_institution>  (215) 
nan

>  <ref_mols>  (215) 
mArh-x0524_0_A,mArh-x0895_0_A

>  <N_constrained_atoms>  (215) 
24.0

>  <ref_url>  (215) 
nan

>  <method>  (215) 
nan

>  <comRMSD>  (215) 
1.035034

>  <N_unconstrained_atoms>  (215) 
6.0

>  <∆∆G>  (215) 
-9.591305

>  <runtime>  (215) 
32.426885

>  <generation_date>  (215) 
nan

$$$$
mArh-x0933_0_A-mArh-x0524_0_A
     RDKit          3D

 30 32  0  0  0  0  0  0  0  0999 V2000
   -6.2120   14.6620    1.9070 N   0  0  0  0  0  0  0  0  0  0  0  0
   -5.1070   14.3070    1.0910 C   0  0  2  0  0  0  0  0  0  0  0  0
   -3.9160   14.8370    1.6560 N   0  0  0  0  0  0  0  0  0  0  0  0
   -5.3370   14.7270   -0.2620 N   0  0  0  0  0  0  0  0  0  0  0  0
   -4.2250   14.5150   -1.2080 C   0  0  2  0  0  0  0  0  0  0  0  0
   -3.0150   15.4770    0.7250 C   0  0  0  0  0  0  0  0  0  0  0  0
   -4.3580   13.0890   -1.7950 C   0  0  0  0  0  0  0  0  0  0  0  0
   -2.8580   14.7190   -0.5770 C   0  0  0  0  0  0  0  0  0  0  0  0
   -3.2830   12.6950   -2.8170 C   0  0  0  0  0  0  0  0  0  0  0  0
   -2.1860   12.0060   -2.2730 C   0  0  0  0  0  0  0  0  0  0  0  0
   -1.1870   11.6910   -3.1880 C   0  0  0  0  0  0  0  0  0  0  0  0
   -1.4620   10.3500   -3.8780 C   0  0  0  0  0  0  0  0  0  0  0  0
   -2.0930   10.4660   -5.2700 C   0  0  0  0  0  0  0  0  0  0  0  0
   -1.8170    9.2830   -6.2090 C   0  0  0  0  0  0  0  0  0  0  0  0
   -0.6580    9.6110   -7.1360 C   0  0  0  0  0  0  0  0  0  0  0  0
   -0.2430    8.5490   -7.9110 N   0  0  0  0  0  0  0  0  0  0  0  0
   -0.1840   10.7390   -7.1450 O   0  0  0  0  0  0  0  0  0  0  0  0
    0.6840    8.6130   -8.9680 C   0  0  0  0  0  0  0  0  0  0  0  0
    1.8210    7.8090   -8.8750 C   0  0  0  0  0  0  0  0  0  0  0  0
    0.5310    9.4290  -10.0900 C   0  0  0  0  0  0  0  0  0  0  0  0
    2.7880    7.8200   -9.8850 C   0  0  0  0  0  0  0  0  0  0  0  0
    1.5000    9.4370  -11.0980 C   0  0  0  0  0  0  0  0  0  0  0  0
    2.6400    8.6370  -11.0150 C   0  0  0  0  0  0  0  0  0  0  0  0
    3.6270    8.6210  -12.0100 N   0  0  0  0  0  0  0  0  0  0  0  0
    3.9110    9.4900  -13.0800 C   0  0  0  0  0  0  0  0  0  0  0  0
    3.1990   10.6940  -13.2020 C   0  0  0  0  0  0  0  0  0  0  0  0
    4.8830    9.2110  -14.0390 C   0  0  0  0  0  0  0  0  0  0  0  0
    3.4590   11.5820  -14.2460 C   0  0  0  0  0  0  0  0  0  0  0  0
    5.1470   10.0960  -15.0850 C   0  0  0  0  0  0  0  0  0  0  0  0
    4.4350   11.2840  -15.1880 C   0  0  0  0  0  0  0  0  0  0  0  0
  2  1  1  1
  2  3  1  0
  2  4  1  0
  4  5  1  0
  3  6  1  0
  5  7  1  1
  5  8  1  0
  6  8  1  0
  7  9  1  0
  9 10  1  0
 10 11  1  0
 11 12  1  0
 12 13  1  0
 13 14  1  0
 14 15  1  0
 15 16  1  0
 15 17  2  0
 16 18  1  0
 18 19  2  0
 18 20  1  0
 19 21  1  0
 20 22  2  0
 21 23  2  0
 22 23  1  0
 23 24  1  0
 24 25  1  0
 25 26  2  0
 25 27  1  0
 26 28  1  0
 27 29  2  0
 28 30  2  0
 29 30  1  0
M  END
>  <%Rank>  (216) 
85.31746

>  <N_hits>  (216) 
2

>  <submitter_name>  (216) 
nan

>  <original SMILES>  (216) 
nan

>  <∆G_unbound>  (216) 
-0.181469

>  <∆G_bound>  (216) 
-7.086873

>  <regarded>  (216) 
mArh-x0933_0_A,mArh-x0524_0_A

>  <ref_pdb>  (216) 
nan

>  <smiles>  (216) 
NC1NCCC(CCCCCCCC(=O)Nc2ccc(Nc3ccccc3)cc2)N1

>  <submitter_email>  (216) 
nan

>  <disregarded>  (216) 


>  <LE>  (216) 
-0.23018

>  <submitter_institution>  (216) 
nan

>  <ref_mols>  (216) 
mArh-x0933_0_A,mArh-x0524_0_A

>  <N_constrained_atoms>  (216) 
24.0

>  <ref_url>  (216) 
nan

>  <method>  (216) 
nan

>  <comRMSD>  (216) 
1.013574

>  <N_unconstrained_atoms>  (216) 
6.0

>  <∆∆G>  (216) 
-6.905403

>  <runtime>  (216) 
33.312333

>  <generation_date>  (216) 
nan

$$$$
mArh-mac-242_0_A-mArh-x0910_1_A
     RDKit          3D

 12 13  0  0  0  0  0  0  0  0999 V2000
   -4.0650   15.1460    1.7430 N   0  0  0  0  0  0  0  0  0  0  0  0
   -2.8670   14.8140    1.1280 C   0  0  0  0  0  0  0  0  0  0  0  0
   -1.8230   14.5340    1.9310 N   0  0  0  0  0  0  0  0  0  0  0  0
   -2.8150   14.7960   -0.2600 C   0  0  0  0  0  0  0  0  0  0  0  0
   -1.6020   14.4830   -0.8660 C   0  0  0  0  0  0  0  0  0  0  0  0
   -0.6610   14.2330    1.3210 C   0  0  0  0  0  0  0  0  0  0  0  0
   -3.9330   15.0810   -1.0680 C   0  0  0  0  0  0  0  0  0  0  0  0
   -0.5040   14.1990   -0.0600 C   0  0  0  0  0  0  0  0  0  0  0  0
   -1.5280   14.4620   -2.2760 C   0  0  0  0  0  0  0  0  0  0  0  0
   -3.8440   15.0540   -2.4550 C   0  0  0  0  0  0  0  0  0  0  0  0
    0.6880   13.8920   -0.6610 N   0  0  0  0  0  0  0  0  0  0  0  0
   -2.6420   14.7450   -3.0620 C   0  0  0  0  0  0  0  0  0  0  0  0
  1  2  1  0
  2  3  2  0
  2  4  1  0
  4  5  2  0
  3  6  1  0
  4  7  1  0
  5  8  1  0
  6  8  2  0
  5  9  1  0
  7 10  2  0
  8 11  1  0
  9 12  2  0
 10 12  1  0
M  END
>  <%Rank>  (217) 
85.714286

>  <N_hits>  (217) 
2

>  <submitter_name>  (217) 
nan

>  <original SMILES>  (217) 
nan

>  <∆G_unbound>  (217) 
0.067334

>  <∆G_bound>  (217) 
-9.061028

>  <regarded>  (217) 
mArh-mac-242_0_A,mArh-x0910_1_A

>  <ref_pdb>  (217) 
nan

>  <smiles>  (217) 
Nc1cnc(N)c2ccccc12

>  <submitter_email>  (217) 
nan

>  <disregarded>  (217) 


>  <LE>  (217) 
-0.760697

>  <submitter_institution>  (217) 
nan

>  <ref_mols>  (217) 
mArh-mac-242_0_A,mArh-x0910_1_A

>  <N_constrained_atoms>  (217) 
12.0

>  <ref_url>  (217) 
nan

>  <method>  (217) 
nan

>  <comRMSD>  (217) 
1.158476

>  <N_unconstrained_atoms>  (217) 
0.0

>  <∆∆G>  (217) 
-9.128362

>  <runtime>  (217) 
21.326587

>  <generation_date>  (217) 
nan

$$$$
mArh-x0926_0_A-mArh-x0910_0_A
     RDKit          3D

  8  8  0  0  0  0  0  0  0  0999 V2000
   -6.8420   15.2880   -0.8840 O   0  0  0  0  0  0  0  0  0  0  0  0
   -5.6790   15.0730   -0.5530 C   0  0  0  0  0  0  0  0  0  0  0  0
   -5.3150   14.4650    0.7800 C   0  0  2  0  0  0  0  0  0  0  0  0
   -4.6290   15.3740   -1.4110 N   0  0  0  0  0  0  0  0  0  0  0  0
   -6.4080   14.6360    1.7610 N   0  0  0  0  0  0  0  0  0  0  0  0
   -3.3090   15.1860   -0.9770 N   0  0  0  0  0  0  0  0  0  0  0  0
   -3.9780   14.9270    1.2740 C   0  0  0  0  0  0  0  0  0  0  0  0
   -3.0570   15.2460    0.3720 C   0  0  0  0  0  0  0  0  0  0  0  0
  1  2  2  0
  2  3  1  0
  2  4  1  0
  3  5  1  1
  4  6  1  0
  3  7  1  0
  6  8  1  0
  7  8  2  0
M  END
>  <%Rank>  (218) 
86.111111

>  <N_hits>  (218) 
2

>  <submitter_name>  (218) 
nan

>  <original SMILES>  (218) 
nan

>  <∆G_unbound>  (218) 
0.057586

>  <∆G_bound>  (218) 
-2.936167

>  <regarded>  (218) 
mArh-x0926_0_A,mArh-x0910_0_A

>  <ref_pdb>  (218) 
nan

>  <smiles>  (218) 
NC1C=CNNC1=O

>  <submitter_email>  (218) 
nan

>  <disregarded>  (218) 


>  <LE>  (218) 
-0.374219

>  <submitter_institution>  (218) 
nan

>  <ref_mols>  (218) 
mArh-x0926_0_A,mArh-x0910_0_A

>  <N_constrained_atoms>  (218) 
8.0

>  <ref_url>  (218) 
nan

>  <method>  (218) 
nan

>  <comRMSD>  (218) 
0.832844

>  <N_unconstrained_atoms>  (218) 
0.0

>  <∆∆G>  (218) 
-2.993753

>  <runtime>  (218) 
15.808818

>  <generation_date>  (218) 
nan

$$$$
mArh-x0524_0_A-mArh-x0711_0_A
     RDKit          3D

 33 35  0  0  0  0  0  0  0  0999 V2000
   -0.2270    8.5040   -7.8740 N   0  0  0  0  0  0  0  0  0  0  0  0
   -0.7970    9.5410   -7.1720 C   0  0  0  0  0  0  0  0  0  0  0  0
   -2.1130    9.2140   -6.4800 C   0  0  0  0  0  0  0  0  0  0  0  0
    0.7000    8.5830   -8.9300 C   0  0  0  0  0  0  0  0  0  0  0  0
   -0.2490   10.7170   -7.1170 N   0  0  0  0  0  0  0  0  0  0  0  0
    1.8100    7.7360   -8.9060 C   0  0  0  0  0  0  0  0  0  0  0  0
    0.5830    9.4630  -10.0070 C   0  0  0  0  0  0  0  0  0  0  0  0
   -0.8740   11.8130   -6.3820 C   0  0  0  0  0  0  0  0  0  0  0  0
    2.7730    7.7690   -9.9230 C   0  0  0  0  0  0  0  0  0  0  0  0
    1.5420    9.4940  -11.0260 C   0  0  0  0  0  0  0  0  0  0  0  0
   -0.5900   11.7080   -4.8810 C   0  0  0  0  0  0  0  0  0  0  0  0
    2.6500    8.6520  -11.0020 C   0  0  0  0  0  0  0  0  0  0  0  0
    3.6300    8.6600  -12.0040 N   0  0  0  0  0  0  0  0  0  0  0  0
   -1.4410   12.6220   -3.9950 C   0  0  0  0  0  0  0  0  0  0  0  0
   -0.5400   13.8690   -3.0760 S   0  0  0  0  0  0  0  0  0  0  0  0
    3.8770    9.5480  -13.0630 C   0  0  0  0  0  0  0  0  0  0  0  0
   -1.6750   15.0750   -2.8070 N   0  0  0  0  0  0  0  0  0  0  0  0
    0.4470   14.4500   -3.9630 O   0  0  0  0  0  0  0  0  0  0  0  0
   -0.1200   13.2860   -1.8180 O   0  0  0  0  0  0  0  0  0  0  0  0
    3.1890   10.7530  -13.2400 C   0  0  0  0  0  0  0  0  0  0  0  0
    4.8660    9.2150  -13.9930 C   0  0  0  0  0  0  0  0  0  0  0  0
    3.4800   11.5970  -14.3100 C   0  0  0  0  0  0  0  0  0  0  0  0
    5.1630   10.0580  -15.0660 C   0  0  0  0  0  0  0  0  0  0  0  0
   -2.8350   14.9490   -1.9840 C   0  0  0  0  0  0  0  0  0  0  0  0
    4.4700   11.2510  -15.2220 C   0  0  0  0  0  0  0  0  0  0  0  0
   -4.0800   15.1800   -2.5580 C   0  0  0  0  0  0  0  0  0  0  0  0
   -2.7460   14.6160   -0.6280 C   0  0  0  0  0  0  0  0  0  0  0  0
   -5.2450   15.0830   -1.8000 C   0  0  0  0  0  0  0  0  0  0  0  0
   -3.9150   14.5170    0.1430 C   0  0  0  0  0  0  0  0  0  0  0  0
   -5.1710   14.7510   -0.4460 C   0  0  0  0  0  0  0  0  0  0  0  0
   -6.3920   14.6370    0.3950 C   0  0  0  0  0  0  0  0  0  0  0  0
   -6.2240   14.6300    1.7470 N   0  0  0  0  0  0  0  0  0  0  0  0
   -7.5120   14.5600   -0.1020 O   0  0  0  0  0  0  0  0  0  0  0  0
  1  2  1  0
  2  3  1  0
  1  4  1  0
  2  5  2  3
  4  6  2  0
  4  7  1  0
  5  8  1  0
  6  9  1  0
  7 10  2  0
  8 11  1  0
  9 12  2  0
 10 12  1  0
 12 13  1  0
 11 14  1  0
 14 15  1  0
 13 16  1  0
 15 17  1  0
 15 18  2  0
 15 19  2  0
 16 20  2  0
 16 21  1  0
 20 22  1  0
 21 23  2  0
 17 24  1  0
 22 25  2  0
 23 25  1  0
 24 26  2  0
 24 27  1  0
 26 28  1  0
 27 29  2  0
 28 30  2  0
 29 30  1  0
 30 31  1  0
 31 32  1  0
 31 33  2  0
M  END
>  <%Rank>  (219) 
86.507937

>  <N_hits>  (219) 
2

>  <submitter_name>  (219) 
nan

>  <original SMILES>  (219) 
nan

>  <∆G_unbound>  (219) 
1.181688

>  <∆G_bound>  (219) 
-7.407259

>  <regarded>  (219) 
mArh-x0524_0_A,mArh-x0711_0_A

>  <ref_pdb>  (219) 
nan

>  <smiles>  (219) 
CC(=NCCCS(=O)(=O)Nc1ccc(C(N)=O)cc1)Nc1ccc(Nc2ccccc2)cc1

>  <submitter_email>  (219) 
nan

>  <disregarded>  (219) 


>  <LE>  (219) 
-0.260271

>  <submitter_institution>  (219) 
nan

>  <ref_mols>  (219) 
mArh-x0524_0_A,mArh-x0711_0_A

>  <N_constrained_atoms>  (219) 
31.0

>  <ref_url>  (219) 
nan

>  <method>  (219) 
nan

>  <comRMSD>  (219) 
1.233988

>  <N_unconstrained_atoms>  (219) 
2.0

>  <∆∆G>  (219) 
-8.588946

>  <runtime>  (219) 
53.725007

>  <generation_date>  (219) 
nan

$$$$
mArh-x0926_0_A-mArh-5cms_G_3_G
     RDKit          3D

 29 31  0  0  0  0  0  0  0  0999 V2000
   -5.9470   15.8280   -1.1620 O   0  0  0  0  0  0  0  0  0  0  0  0
   -4.8850   15.1290   -1.2940 C   0  0  0  0  0  0  0  0  0  0  0  0
   -4.7800   13.8820   -0.5670 C   0  0  0  0  0  0  0  0  0  0  0  0
   -3.7770   15.5150   -2.1720 N   0  0  0  0  0  0  0  0  0  0  0  0
   -2.4890   14.7650   -2.1090 C   0  0  2  0  0  0  0  0  0  0  0  0
   -3.5750   13.5050   -0.2450 C   0  0  0  0  0  0  0  0  0  0  0  0
   -2.4520   14.3620   -0.5990 C   0  0  2  0  0  0  0  0  0  0  0  0
   -1.3280   15.4570   -2.4880 O   0  0  0  0  0  0  0  0  0  0  0  0
   -2.4410   13.7190   -3.2570 C   0  0  2  0  0  0  0  0  0  0  0  0
   -2.1350   12.4250   -2.9230 O   0  0  0  0  0  0  0  0  0  0  0  0
   -1.3080   15.6180   -3.8700 C   0  0  2  0  0  0  0  0  0  0  0  0
   -1.4700   14.2250   -4.3600 C   0  0  1  0  0  0  0  0  0  0  0  0
   -2.5970   15.2720    0.6120 C   0  0  1  0  0  0  0  0  0  0  0  0
   -1.0930   13.6840   -0.4860 C   0  0  0  0  0  0  0  0  0  0  0  0
   -0.1400   16.3590   -4.5310 C   0  0  0  0  0  0  0  0  0  0  0  0
   -0.2080   13.5900   -4.3870 O   0  0  0  0  0  0  0  0  0  0  0  0
   -3.6900   14.7830    1.4270 N   0  0  0  0  0  0  0  0  0  0  0  0
   -1.4740   15.1230    1.5100 N   0  0  0  0  0  0  0  0  0  0  0  0
   -0.0770   14.6190   -0.2920 N   0  0  0  0  0  0  0  0  0  0  0  0
   -0.4800   16.8480   -5.7620 O   0  0  0  0  0  0  0  0  0  0  0  0
   -0.1990   15.2720    0.9110 C   0  0  0  0  0  0  0  0  0  0  0  0
   -1.3710   18.1270   -6.0490 P   0  0  0  0  0  0  0  0  0  0  0  0
   -2.1850   18.9940   -4.9000 O   0  0  0  0  0  0  0  0  0  0  0  0
   -2.6390   17.3890   -6.4980 O   0  0  0  0  0  0  0  0  0  0  0  0
   -1.4750   18.7880   -7.6050 O   0  0  0  0  0  0  0  0  0  0  0  0
   -0.3030   19.6580   -8.0520 P   0  0  0  0  0  0  0  0  0  0  0  0
   -1.3780   20.8570   -8.4770 O   0  0  0  0  0  0  0  0  0  0  0  0
    0.0290   18.4330   -9.0990 O   0  0  0  0  0  0  0  0  0  0  0  0
    0.5170   19.6510   -6.7230 O   0  0  0  0  0  0  0  0  0  0  0  0
  1  2  2  0
  2  3  1  0
  2  4  1  0
  5  4  1  1
  3  6  2  0
  5  7  1  0
  7  6  1  6
  5  8  1  0
  5  9  1  0
  9 10  1  1
  8 11  1  0
  9 12  1  0
 11 12  1  0
  7 13  1  0
  7 14  1  0
 11 15  1  1
 12 16  1  1
 13 17  1  1
 13 18  1  0
 14 19  1  0
 15 20  1  0
 18 21  1  0
 19 21  1  0
 20 22  1  0
 22 23  1  0
 22 24  1  0
 22 25  1  0
 25 26  1  0
 26 27  1  0
 26 28  1  0
 26 29  1  0
M  CHG  2  23  -1  28  -1
M  END
>  <%Rank>  (220) 
86.904762

>  <N_hits>  (220) 
2

>  <submitter_name>  (220) 
nan

>  <original SMILES>  (220) 
nan

>  <∆G_unbound>  (220) 
3.700135

>  <∆G_bound>  (220) 
-3.401201

>  <regarded>  (220) 
mArh-x0926_0_A,mArh-5cms_G_3_G

>  <ref_pdb>  (220) 
nan

>  <smiles>  (220) 
NC1NCNCC12C=CC(=O)NC21OC(CO[PH]([O-])(O)O[PH]([O-])(O)O)C(O)C1O

>  <submitter_email>  (220) 
nan

>  <disregarded>  (220) 


>  <LE>  (220) 
-0.244874

>  <submitter_institution>  (220) 
nan

>  <ref_mols>  (220) 
mArh-x0926_0_A,mArh-5cms_G_3_G

>  <N_constrained_atoms>  (220) 
29.0

>  <ref_url>  (220) 
nan

>  <method>  (220) 
nan

>  <comRMSD>  (220) 
1.244889

>  <N_unconstrained_atoms>  (220) 
0.0

>  <∆∆G>  (220) 
-7.101336

>  <runtime>  (220) 
41.236967

>  <generation_date>  (220) 
nan

$$$$
mArh-x0910_2_B-mArh-x0681_0_A
     RDKit          3D

 25 27  0  0  0  0  0  0  0  0999 V2000
  -13.3770   21.8470   -3.7350 N   0  0  0  0  0  0  0  0  0  0  0  0
  -12.9950   22.2090   -2.5080 C   0  0  0  0  0  0  0  0  0  0  0  0
  -12.2480   21.4130   -1.7120 N   0  0  0  0  0  0  0  0  0  0  0  0
  -13.2780   23.4240   -1.8160 N   0  0  0  0  0  0  0  0  0  0  0  0
  -11.7860   20.0600   -2.0880 C   0  0  0  0  0  0  0  0  0  0  0  0
  -11.9950   22.0300   -0.5230 N   0  0  0  0  0  0  0  0  0  0  0  0
  -12.6280   23.2090   -0.6320 C   0  0  0  0  0  0  0  0  0  0  0  0
  -12.1030   18.8840   -1.1240 C   0  0  0  0  0  0  0  0  0  0  0  0
  -10.8720   18.1140   -0.5660 C   0  0  0  0  0  0  0  0  0  0  0  0
  -10.0800   17.1660   -1.5190 C   0  0  0  0  0  0  0  0  0  0  0  0
   -8.7410   16.6800   -0.8930 C   0  0  0  0  0  0  0  0  0  0  0  0
   -7.9590   15.4550   -1.4600 C   0  0  0  0  0  0  0  0  0  0  0  0
   -6.4940   15.8640   -1.7520 C   0  0  0  0  0  0  0  0  0  0  0  0
   -5.5100   14.8740   -2.2100 N   0  0  0  0  0  0  0  0  0  0  0  0
   -4.1440   14.9170   -1.8830 C   0  0  0  0  0  0  0  0  0  0  0  0
   -3.2520   15.3570   -2.6130 O   0  0  0  0  0  0  0  0  0  0  0  0
   -3.8130   14.3120   -0.5360 C   0  0  2  0  0  0  0  0  0  0  0  0
   -4.7560   13.3080   -0.3500 C   0  0  0  0  0  0  0  0  0  0  0  0
   -3.7920   15.4180    0.5470 C   0  0  0  0  0  0  0  0  0  0  0  0
   -5.6830   13.3570    0.6720 N   0  0  0  0  0  0  0  0  0  0  0  0
   -4.3480   15.0520    1.7640 C   0  0  0  0  0  0  0  0  0  0  0  0
   -4.9060   12.2220   -1.1000 N   0  0  0  0  0  0  0  0  0  0  0  0
   -5.7270   14.4310    1.6070 C   0  0  0  0  0  0  0  0  0  0  0  0
   -6.4870   12.2730    0.6190 C   0  0  0  0  0  0  0  0  0  0  0  0
   -5.9590   11.5300   -0.5680 C   0  0  0  0  0  0  0  0  0  0  0  0
  1  2  1  0
  2  3  1  0
  2  4  2  0
  3  5  1  0
  3  6  1  0
  4  7  1  0
  6  7  2  0
  5  8  1  0
  8  9  1  0
  9 10  1  0
 10 11  1  0
 11 12  1  0
 12 13  1  0
 13 14  1  0
 14 15  1  0
 15 16  2  0
 17 15  1  6
 17 18  1  0
 17 19  1  0
 18 20  1  0
 19 21  1  0
 18 22  2  0
 20 23  1  0
 21 23  1  0
 20 24  1  0
 22 25  1  0
 24 25  2  0
M  END
>  <%Rank>  (221) 
87.301587

>  <N_hits>  (221) 
2

>  <submitter_name>  (221) 
nan

>  <original SMILES>  (221) 
nan

>  <∆G_unbound>  (221) 
0.634496

>  <∆G_bound>  (221) 
-6.472359

>  <regarded>  (221) 
mArh-x0910_2_B,mArh-x0681_0_A

>  <ref_pdb>  (221) 
nan

>  <smiles>  (221) 
Nc1ncnn1CCCCCCCNC(=O)C1CCCn2ccnc21

>  <submitter_email>  (221) 
nan

>  <disregarded>  (221) 


>  <LE>  (221) 
-0.284274

>  <submitter_institution>  (221) 
nan

>  <ref_mols>  (221) 
mArh-x0910_2_B,mArh-x0681_0_A

>  <N_constrained_atoms>  (221) 
18.0

>  <ref_url>  (221) 
nan

>  <method>  (221) 
nan

>  <comRMSD>  (221) 
0.962412

>  <N_unconstrained_atoms>  (221) 
7.0

>  <∆∆G>  (221) 
-7.106855

>  <runtime>  (221) 
23.555245

>  <generation_date>  (221) 
nan

$$$$
mArh-x0962_2_B-mArh-x0371_0_A
     RDKit          3D

 24 27  0  0  0  0  0  0  0  0999 V2000
  -11.4220   16.0920    2.9330 N   0  0  0  0  0  0  0  0  0  0  0  0
  -10.0320   15.6820    2.6750 C   0  0  1  0  0  0  0  0  0  0  0  0
   -8.8510   16.2940    3.4850 C   0  0  2  0  0  0  0  0  0  0  0  0
   -9.5910   14.4490    3.2590 C   0  0  0  0  0  0  0  0  0  0  0  0
   -7.7180   15.4120    3.0260 N   0  0  0  0  0  0  0  0  0  0  0  0
   -8.8730   14.6230    4.3960 N   0  0  0  0  0  0  0  0  0  0  0  0
   -9.6300   13.1150    3.0440 C   0  0  0  0  0  0  0  0  0  0  0  0
   -8.8600   16.1620    5.0040 C   0  0  0  0  0  0  0  0  0  0  0  0
   -7.9710   14.5920    1.8160 C   0  0  0  0  0  0  0  0  0  0  0  0
   -8.4870   13.4190    4.8390 C   0  0  0  0  0  0  0  0  0  0  0  0
   -8.9280   12.4750    4.0460 N   0  0  0  0  0  0  0  0  0  0  0  0
   -7.8700   15.3550    5.5390 O   0  0  0  0  0  0  0  0  0  0  0  0
   -9.6220   16.6600    6.0330 C   0  0  0  0  0  0  0  0  0  0  0  0
   -6.8310   14.7130    0.8740 C   0  0  0  0  0  0  0  0  0  0  0  0
   -9.0180   16.0790    7.3090 C   0  0  0  0  0  0  0  0  0  0  0  0
   -7.9700   15.3080    6.8890 C   0  0  0  0  0  0  0  0  0  0  0  0
   -5.5590   14.6190    1.3880 N   0  0  0  0  0  0  0  0  0  0  0  0
   -6.8540   14.9190   -0.4440 N   0  0  0  0  0  0  0  0  0  0  0  0
   -5.5340   14.9720   -0.8140 C   0  0  0  0  0  0  0  0  0  0  0  0
   -4.6690   14.7740    0.3890 C   0  0  0  0  0  0  0  0  0  0  0  0
   -3.2960   14.7740    0.3350 C   0  0  0  0  0  0  0  0  0  0  0  0
   -4.9100   15.1660   -2.0420 C   0  0  0  0  0  0  0  0  0  0  0  0
   -2.7440   14.9700   -0.9320 C   0  0  0  0  0  0  0  0  0  0  0  0
   -3.5190   15.1640   -2.0940 C   0  0  0  0  0  0  0  0  0  0  0  0
  2  1  1  1
  2  3  1  0
  2  4  1  0
  3  5  1  6
  4  6  1  0
  4  7  2  0
  3  8  1  0
  5  9  1  0
  6 10  1  0
  7 11  1  0
 10 11  2  0
  8 12  1  0
  8 13  2  0
  9 14  1  0
 13 15  1  0
 12 16  1  0
 15 16  2  0
 14 17  1  0
 14 18  2  0
 18 19  1  0
 17 20  1  0
 19 20  2  0
 20 21  1  0
 19 22  1  0
 21 23  2  0
 22 24  2  0
 23 24  1  0
M  END
>  <%Rank>  (222) 
87.698413

>  <N_hits>  (222) 
2

>  <submitter_name>  (222) 
nan

>  <original SMILES>  (222) 
nan

>  <∆G_unbound>  (222) 
3.581979

>  <∆G_bound>  (222) 
3.503319

>  <regarded>  (222) 
mArh-x0962_2_B,mArh-x0371_0_A

>  <ref_pdb>  (222) 
nan

>  <smiles>  (222) 
NC(c1cnc[nH]1)C(NCc1nc2ccccc2[nH]1)c1ccco1

>  <submitter_email>  (222) 
nan

>  <disregarded>  (222) 


>  <LE>  (222) 
-0.003278

>  <submitter_institution>  (222) 
nan

>  <ref_mols>  (222) 
mArh-x0962_2_B,mArh-x0371_0_A

>  <N_constrained_atoms>  (222) 
24.0

>  <ref_url>  (222) 
nan

>  <method>  (222) 
nan

>  <comRMSD>  (222) 
1.124678

>  <N_unconstrained_atoms>  (222) 
0.0

>  <∆∆G>  (222) 
-0.078661

>  <runtime>  (222) 
20.312943

>  <generation_date>  (222) 
nan

$$$$
mArh-1spv_0_A-mArh-5cms_B_1_B
     RDKit          3D

 42 46  0  0  0  0  0  0  0  0999 V2000
   -1.4690   18.4470   -8.0150 O   0  0  0  0  0  0  0  0  0  0  0  0
   -1.8040   19.4620   -7.1130 S   0  0  0  0  0  0  0  0  0  0  0  0
   -0.6570   20.1720   -6.6580 O   0  0  0  0  0  0  0  0  0  0  0  0
   -2.2500   18.9240   -5.7510 O   0  0  0  0  0  0  0  0  0  0  0  0
   -3.4140   20.4040   -7.3980 C   0  0  0  0  0  0  0  0  0  0  0  0
   -3.7390   21.6010   -8.4340 C   0  0  0  0  0  0  0  0  0  0  0  0
   -1.8940   17.4510   -5.8070 P   0  0  2  0  0  0  0  0  0  0  0  0
   -0.2920   17.3890   -6.0480 O   0  0  0  0  0  0  0  0  0  0  0  0
   -2.7530   16.5610   -6.5950 O   0  0  0  0  0  0  0  0  0  0  0  0
   -2.1660   17.2090   -4.3020 O   0  0  0  0  0  0  0  0  0  0  0  0
   -3.4650   22.7770   -7.6490 N   0  0  0  0  0  0  0  0  0  0  0  0
   -4.1960   22.0890   -9.9250 C   0  0  2  0  0  0  0  0  0  0  0  0
    0.5930   16.5980   -5.2410 C   0  0  0  0  0  0  0  0  0  0  0  0
   -4.2130   23.8820   -8.1550 C   0  0  0  0  0  0  0  0  0  0  0  0
   -3.9630   22.5750   -6.3050 C   0  0  0  0  0  0  0  0  0  0  0  0
   -3.5970   21.8620  -11.3560 C   0  0  1  0  0  0  0  0  0  0  0  0
   -3.8880   23.5320   -9.8490 O   0  0  0  0  0  0  0  0  0  0  0  0
   -4.6030   21.5990  -12.3360 O   0  0  0  0  0  0  0  0  0  0  0  0
   -5.5610   23.5430   -8.3040 C   0  0  0  0  0  0  0  0  0  0  0  0
   -5.4270   22.1900   -6.4170 C   0  0  0  0  0  0  0  0  0  0  0  0
   -0.1740   15.4400   -4.6450 C   0  0  2  0  0  0  0  0  0  0  0  0
   -3.6480   24.1250  -11.1450 C   0  0  2  0  0  0  0  0  0  0  0  0
   -3.2110   23.1770  -11.9840 C   0  0  2  0  0  0  0  0  0  0  0  0
   -2.5760   25.0500  -11.1740 O   0  0  0  0  0  0  0  0  0  0  0  0
   -3.8330   23.3850  -13.2410 O   0  0  0  0  0  0  0  0  0  0  0  0
   -6.1330   23.2780   -7.0120 O   0  0  0  0  0  0  0  0  0  0  0  0
    0.0180   15.3020   -3.2500 O   0  0  0  0  0  0  0  0  0  0  0  0
   -0.0070   13.9900   -5.1570 C   0  0  1  0  0  0  0  0  0  0  0  0
    1.3280   13.5070   -5.2510 O   0  0  0  0  0  0  0  0  0  0  0  0
   -0.7900   13.2530   -4.0430 C   0  0  2  0  0  0  0  0  0  0  0  0
   -1.1240   14.4790   -3.1970 C   0  0  1  0  0  0  0  0  0  0  0  0
    0.0640   12.3010   -3.3860 O   0  0  0  0  0  0  0  0  0  0  0  0
   -1.8810   14.6910   -1.9970 N   0  0  0  0  0  0  0  0  0  0  0  0
   -1.5770   14.6900   -0.6620 C   0  0  0  0  0  0  0  0  0  0  0  0
   -3.2250   15.0020   -2.1460 C   0  0  0  0  0  0  0  0  0  0  0  0
   -2.9190   15.0640   -0.0800 C   0  0  0  0  0  0  0  0  0  0  0  0
   -0.4250   14.4470   -0.0260 N   0  0  0  0  0  0  0  0  0  0  0  0
   -3.8730   15.2300   -1.0310 N   0  0  0  0  0  0  0  0  0  0  0  0
   -2.8770   15.1640    1.3000 C   0  0  0  0  0  0  0  0  0  0  0  0
   -0.6040   14.5770    1.2960 C   0  0  0  0  0  0  0  0  0  0  0  0
   -4.0130   15.5380    2.0030 N   0  0  0  0  0  0  0  0  0  0  0  0
   -1.7260   14.9090    1.9650 N   0  0  0  0  0  0  0  0  0  0  0  0
  1  2  2  0
  2  3  2  0
  2  4  1  0
  2  5  1  0
  5  6  1  0
  4  7  1  0
  7  8  1  0
  7  9  2  0
  7 10  1  1
  6 11  1  0
 12  6  1  1
  8 13  1  0
 11 14  1  0
 11 15  1  0
 12 16  1  0
 12 17  1  0
 16 18  1  6
 14 19  1  0
 15 20  1  0
 21 13  1  6
 17 22  1  0
 16 23  1  0
 22 23  1  0
 22 24  1  1
 23 25  1  6
 19 26  1  0
 20 26  1  0
 21 27  1  0
 21 28  1  0
 28 29  1  1
 28 30  1  0
 27 31  1  0
 30 31  1  0
 30 32  1  1
 31 33  1  1
 33 34  1  0
 33 35  1  0
 34 36  2  0
 34 37  1  0
 35 38  2  0
 36 38  1  0
 36 39  1  0
 37 40  2  0
 39 41  1  0
 39 42  2  0
 40 42  1  0
M  END
>  <%Rank>  (223) 
88.095238

>  <N_hits>  (223) 
2

>  <submitter_name>  (223) 
nan

>  <original SMILES>  (223) 
nan

>  <∆G_unbound>  (223) 
6.311088

>  <∆G_bound>  (223) 
-1.657161

>  <regarded>  (223) 
mArh-1spv_0_A,mArh-5cms_B_1_B

>  <ref_pdb>  (223) 
nan

>  <smiles>  (223) 
Nc1ncnc2c1ncn2C1OC(CO[P@@](=O)(O)OS(=O)(=O)CC(C2OC(O)C(O)C2O)N2CCOCC2)C(O)C1O

>  <submitter_email>  (223) 
nan

>  <disregarded>  (223) 


>  <LE>  (223) 
-0.18972

>  <submitter_institution>  (223) 
nan

>  <ref_mols>  (223) 
mArh-1spv_0_A,mArh-5cms_B_1_B

>  <N_constrained_atoms>  (223) 
42.0

>  <ref_url>  (223) 
nan

>  <method>  (223) 
nan

>  <comRMSD>  (223) 
1.417123

>  <N_unconstrained_atoms>  (223) 
0.0

>  <∆∆G>  (223) 
-7.968249

>  <runtime>  (223) 
47.962065

>  <generation_date>  (223) 
nan

$$$$
mArh-4j4z_0_A-mArh-x0805_0_A
     RDKit          3D

 32 34  0  0  0  0  0  0  0  0999 V2000
   -0.8290   16.9470   -3.5520 O   0  0  0  0  0  0  0  0  0  0  0  0
   -1.1920   16.7820   -4.9380 S   0  0  0  0  0  0  0  0  0  0  0  0
   -0.2210   16.8710   -5.9990 O   0  0  0  0  0  0  0  0  0  0  0  0
   -2.2610   17.9620   -5.1580 O   0  0  0  0  0  0  0  0  0  0  0  0
   -2.2800   15.3480   -5.1780 C   0  0  0  0  0  0  0  0  0  0  0  0
   -1.5560   14.0780   -5.7290 C   0  0  0  0  0  0  0  0  0  0  0  0
   -1.4030   12.9160   -4.7050 C   0  0  0  0  0  0  0  0  0  0  0  0
   -2.8590   12.5880   -4.2570 C   0  0  0  0  0  0  0  0  0  0  0  0
   -0.8400   11.5330   -5.1930 C   0  0  0  0  0  0  0  0  0  0  0  0
   -0.4210   13.5880   -3.5710 C   0  0  1  0  0  0  0  0  0  0  0  0
   -3.4600   11.3200   -4.8690 C   0  0  0  0  0  0  0  0  0  0  0  0
   -1.2920   10.3480   -4.2940 C   0  0  0  0  0  0  0  0  0  0  0  0
   -1.6340   13.7550   -2.5770 C   0  0  0  0  0  0  0  0  0  0  0  0
    0.7350   12.5570   -3.3230 C   0  0  2  0  0  0  0  0  0  0  0  0
    0.2360   14.9960   -3.8910 C   0  0  0  0  0  0  0  0  0  0  0  0
    0.5820   11.8270   -2.0630 C   0  0  0  0  0  0  0  0  0  0  0  0
   -2.7240   10.1090   -4.5420 N   0  0  0  0  0  0  0  0  0  0  0  0
   -2.5940   12.7240   -2.5530 C   0  0  0  0  0  0  0  0  0  0  0  0
   -1.8830   14.8440   -1.7160 C   0  0  0  0  0  0  0  0  0  0  0  0
    2.1830   13.0690   -3.3830 C   0  0  0  0  0  0  0  0  0  0  0  0
    1.7040   15.1440   -4.2790 C   0  0  0  0  0  0  0  0  0  0  0  0
   -3.4270    9.3870   -3.4790 C   0  0  0  0  0  0  0  0  0  0  0  0
    0.4960   10.4870   -2.1870 O   0  0  0  0  0  0  0  0  0  0  0  0
    0.5100   12.3830   -0.9930 O   0  0  0  0  0  0  0  0  0  0  0  0
   -3.0250   14.8760   -0.8990 C   0  0  0  0  0  0  0  0  0  0  0  0
   -3.7250   12.7540   -1.7520 C   0  0  0  0  0  0  0  0  0  0  0  0
    2.3630   13.9160   -4.4920 O   0  0  0  0  0  0  0  0  0  0  0  0
   -3.7580    7.9300   -3.8110 C   0  0  0  0  0  0  0  0  0  0  0  0
   -3.1490   15.9770   -0.1120 O   0  0  0  0  0  0  0  0  0  0  0  0
   -3.9430   13.8340   -0.9230 C   0  0  0  0  0  0  0  0  0  0  0  0
   -3.7580    7.1710   -2.6060 O   0  0  0  0  0  0  0  0  0  0  0  0
   -4.0590   15.8200    0.9720 C   0  0  0  0  0  0  0  0  0  0  0  0
  1  2  2  0
  2  3  2  0
  2  4  1  0
  2  5  1  0
  5  6  1  0
  7  6  1  0
  7  8  1  0
  7  9  1  0
  7 10  1  0
  8 11  1  0
  9 12  1  0
 10 13  1  1
 10 14  1  0
 10 15  1  0
 14 16  1  1
 11 17  1  0
 12 17  1  0
 13 18  2  0
 13 19  1  0
 14 20  1  0
 15 21  1  0
 17 22  1  0
 16 23  1  0
 16 24  2  0
 19 25  2  0
 18 26  1  0
 20 27  1  0
 21 27  1  0
 22 28  1  0
 25 29  1  0
 25 30  1  0
 26 30  2  0
 28 31  1  0
 29 32  1  0
M  END
>  <%Rank>  (224) 
88.492063

>  <N_hits>  (224) 
2

>  <submitter_name>  (224) 
nan

>  <original SMILES>  (224) 
nan

>  <∆G_unbound>  (224) 
2.652746

>  <∆G_bound>  (224) 
-1.09744

>  <regarded>  (224) 
mArh-4j4z_0_A,mArh-x0805_0_A

>  <ref_pdb>  (224) 
nan

>  <smiles>  (224) 
COc1cccc(C2(C3(CCS(=O)(=O)O)CCN(CCO)CC3)CCOCC2C(=O)O)c1

>  <submitter_email>  (224) 
nan

>  <disregarded>  (224) 


>  <LE>  (224) 
-0.117193

>  <submitter_institution>  (224) 
nan

>  <ref_mols>  (224) 
mArh-4j4z_0_A,mArh-x0805_0_A

>  <N_constrained_atoms>  (224) 
31.0

>  <ref_url>  (224) 
nan

>  <method>  (224) 
nan

>  <comRMSD>  (224) 
1.275061

>  <N_unconstrained_atoms>  (224) 
1.0

>  <∆∆G>  (224) 
-3.750185

>  <runtime>  (224) 
36.937564

>  <generation_date>  (224) 
nan

$$$$
mArh-x0587_0_A-mArh-x0926_0_A
     RDKit          3D

 19 20  0  0  0  0  0  0  0  0999 V2000
   -8.1300   14.6950    3.9750 N   0  0  0  0  0  0  0  0  0  0  0  0
   -8.5000   14.6860    2.6580 C   0  0  0  0  0  0  0  0  0  0  0  0
   -9.6390   14.8580    2.2560 O   0  0  0  0  0  0  0  0  0  0  0  0
   -7.4680   14.4700    1.5550 C   0  0  2  0  0  0  0  0  0  0  0  0
   -7.9220   14.7890    0.1480 C   0  0  0  0  0  0  0  0  0  0  0  0
   -6.8030   13.0930    1.4960 C   0  0  0  0  0  0  0  0  0  0  0  0
   -6.6910   14.8780   -0.6330 N   0  0  0  0  0  0  0  0  0  0  0  0
   -5.8240   12.9470    0.3880 N   0  0  0  0  0  0  0  0  0  0  0  0
   -6.2750   13.5050   -0.9120 C   0  0  2  0  0  0  0  0  0  0  0  0
   -5.8180   15.3070    0.2790 N   0  0  0  0  0  0  0  0  0  0  0  0
   -5.3260   13.3880   -2.1490 C   0  0  0  0  0  0  0  0  0  0  0  0
   -4.6170   15.6670    0.0150 C   0  0  0  0  0  0  0  0  0  0  0  0
   -4.0740   13.0310   -1.7690 F   0  0  0  0  0  0  0  0  0  0  0  0
   -5.2090   14.5540   -2.8390 F   0  0  0  0  0  0  0  0  0  0  0  0
   -3.8270   16.0610    1.0250 C   0  0  0  0  0  0  0  0  0  0  0  0
   -4.1340   15.6450   -1.2780 N   0  0  0  0  0  0  0  0  0  0  0  0
   -2.9370   15.0400   -1.4670 N   0  0  0  0  0  0  0  0  0  0  0  0
   -2.7020   15.0100    1.0720 C   0  0  0  0  0  0  0  0  0  0  0  0
   -2.3290   14.5610   -0.3450 C   0  0  0  0  0  0  0  0  0  0  0  0
  1  2  1  0
  2  3  2  0
  4  2  1  1
  4  5  1  0
  4  6  1  0
  5  7  1  0
  6  8  1  0
  7  9  1  0
  8  9  1  0
  7 10  1  0
  9 11  1  6
 10 12  2  3
 11 13  1  0
 11 14  1  0
 12 15  1  0
 12 16  1  0
 16 17  1  0
 15 18  1  0
 17 19  1  0
 18 19  2  0
M  END
>  <%Rank>  (225) 
88.888889

>  <N_hits>  (225) 
2

>  <submitter_name>  (225) 
nan

>  <original SMILES>  (225) 
nan

>  <∆G_unbound>  (225) 
1.217886

>  <∆G_bound>  (225) 
-0.346805

>  <regarded>  (225) 
mArh-x0587_0_A,mArh-x0926_0_A

>  <ref_pdb>  (225) 
nan

>  <smiles>  (225) 
NC(=O)C1CNC(C(F)F)N(N=C2CC=CNN2)C1

>  <submitter_email>  (225) 
nan

>  <disregarded>  (225) 


>  <LE>  (225) 
-0.082352

>  <submitter_institution>  (225) 
nan

>  <ref_mols>  (225) 
mArh-x0587_0_A,mArh-x0926_0_A

>  <N_constrained_atoms>  (225) 
19.0

>  <ref_url>  (225) 
nan

>  <method>  (225) 
nan

>  <comRMSD>  (225) 
1.097432

>  <N_unconstrained_atoms>  (225) 
0.0

>  <∆∆G>  (225) 
-1.564691

>  <runtime>  (225) 
21.846702

>  <generation_date>  (225) 
nan

$$$$
mArh-x0587_0_A-mArh-x0950_0_A
     RDKit          3D

 22 22  0  0  0  0  0  0  0  0999 V2000
   -7.8000   14.8210    4.0710 N   0  0  0  0  0  0  0  0  0  0  0  0
   -8.2700   14.8990    2.7940 C   0  0  0  0  0  0  0  0  0  0  0  0
   -9.4640   15.0650    2.5570 O   0  0  0  0  0  0  0  0  0  0  0  0
   -7.2830   14.7950    1.7090 C   0  0  0  0  0  0  0  0  0  0  0  0
   -7.6770   14.6220    0.3990 C   0  0  0  0  0  0  0  0  0  0  0  0
   -5.9220   14.8710    1.9030 C   0  0  0  0  0  0  0  0  0  0  0  0
   -6.8060   14.5390   -0.6380 N   0  0  0  0  0  0  0  0  0  0  0  0
   -5.0070   14.7960    0.9120 N   0  0  0  0  0  0  0  0  0  0  0  0
   -5.4790   14.6350   -0.3460 C   0  0  0  0  0  0  0  0  0  0  0  0
   -4.4520   14.5580   -1.4940 C   0  0  0  0  0  0  0  0  0  0  0  0
   -3.1600   15.0780   -1.1340 O   0  0  0  0  0  0  0  0  0  0  0  0
   -4.3040   13.2900   -1.9820 F   0  0  0  0  0  0  0  0  0  0  0  0
   -4.8330   15.2950   -2.5770 F   0  0  0  0  0  0  0  0  0  0  0  0
   -2.2130   14.0940   -0.7310 C   0  0  0  0  0  0  0  0  0  0  0  0
   -0.8010   14.4310   -1.2260 C   0  0  0  0  0  0  0  0  0  0  0  0
    0.1460   13.2480   -1.0690 C   0  0  0  0  0  0  0  0  0  0  0  0
    1.1090   13.2110   -2.1340 O   0  0  0  0  0  0  0  0  0  0  0  0
    0.9190   12.1960   -3.0230 C   0  0  0  0  0  0  0  0  0  0  0  0
    1.4170   12.5730   -4.4270 C   0  0  2  0  0  0  0  0  0  0  0  0
    0.4140   11.1090   -2.7530 O   0  0  0  0  0  0  0  0  0  0  0  0
    1.2210   14.0400   -4.7500 C   0  0  0  0  0  0  0  0  0  0  0  0
    0.7330   11.8050   -5.4240 O   0  0  0  0  0  0  0  0  0  0  0  0
  1  2  1  0
  2  3  2  0
  2  4  1  0
  4  5  2  0
  4  6  1  0
  5  7  1  0
  6  8  2  0
  7  9  2  0
  8  9  1  0
  9 10  1  0
 10 11  1  0
 10 12  1  0
 10 13  1  0
 11 14  1  0
 14 15  1  0
 15 16  1  0
 16 17  1  0
 17 18  1  0
 18 19  1  0
 18 20  2  0
 19 21  1  6
 19 22  1  0
M  END
>  <%Rank>  (226) 
89.285714

>  <N_hits>  (226) 
2

>  <submitter_name>  (226) 
nan

>  <original SMILES>  (226) 
nan

>  <∆G_unbound>  (226) 
0.698957

>  <∆G_bound>  (226) 
-4.793843

>  <regarded>  (226) 
mArh-x0587_0_A,mArh-x0950_0_A

>  <ref_pdb>  (226) 
nan

>  <smiles>  (226) 
C[C@H](O)C(=O)OCCCOC(F)(F)c1ncc(C(N)=O)cn1

>  <submitter_email>  (226) 
nan

>  <disregarded>  (226) 


>  <LE>  (226) 
-0.249673

>  <submitter_institution>  (226) 
nan

>  <ref_mols>  (226) 
mArh-x0587_0_A,mArh-x0950_0_A

>  <N_constrained_atoms>  (226) 
19.0

>  <ref_url>  (226) 
nan

>  <method>  (226) 
nan

>  <comRMSD>  (226) 
1.10358

>  <N_unconstrained_atoms>  (226) 
3.0

>  <∆∆G>  (226) 
-5.4928

>  <runtime>  (226) 
39.25533

>  <generation_date>  (226) 
nan

$$$$
mArh-x0228_1_A-mArh-mac-137_0_A
     RDKit          3D

 26 28  0  0  0  0  0  0  0  0999 V2000
    2.2350   26.5320   15.6250 N   0  0  2  0  0  0  0  0  0  0  0  0
    3.0920   26.0750   16.6320 C   0  0  0  0  0  0  0  0  0  0  0  0
    4.0810   25.1820   16.2830 N   0  0  0  0  0  0  0  0  0  0  0  0
    1.2370   25.9840   16.4390 O   0  0  0  0  0  0  0  0  0  0  0  0
    1.2510   27.6780   15.5540 C   0  0  0  0  0  0  0  0  0  0  0  0
    3.3420   27.4660   15.9750 C   0  0  0  0  0  0  0  0  0  0  0  0
    2.9780   26.5190   17.7650 O   0  0  0  0  0  0  0  0  0  0  0  0
   -0.0370   27.4190   15.0790 C   0  0  0  0  0  0  0  0  0  0  0  0
    1.5540   29.0010   15.9400 C   0  0  0  0  0  0  0  0  0  0  0  0
    3.1930   28.5110   16.9070 C   0  0  0  0  0  0  0  0  0  0  0  0
    4.5780   27.2650   15.3640 C   0  0  0  0  0  0  0  0  0  0  0  0
   -0.3600   26.1320   14.7010 O   0  0  0  0  0  0  0  0  0  0  0  0
   -0.9870   28.4400   14.9830 C   0  0  0  0  0  0  0  0  0  0  0  0
    0.6210   30.0290   15.8530 C   0  0  0  0  0  0  0  0  0  0  0  0
    5.3560   25.3490   16.7030 N   0  0  0  0  0  0  0  0  0  0  0  0
    4.2740   29.3220   17.2120 C   0  0  0  0  0  0  0  0  0  0  0  0
    5.6540   28.0720   15.6670 C   0  0  0  0  0  0  0  0  0  0  0  0
   -1.7370   25.9900   14.3410 C   0  0  0  0  0  0  0  0  0  0  0  0
    1.0120   31.4140   16.2760 C   0  0  0  0  0  0  0  0  0  0  0  0
   -0.6570   29.7410   15.3700 C   0  0  0  0  0  0  0  0  0  0  0  0
    5.7930   25.8230   17.9010 C   0  0  0  0  0  0  0  0  0  0  0  0
    6.4460   25.0480   15.9740 C   0  0  0  0  0  0  0  0  0  0  0  0
    5.4950   29.0930   16.5920 C   0  0  0  0  0  0  0  0  0  0  0  0
    6.5320   29.9060   16.9180 O   0  0  0  0  0  0  0  0  0  0  0  0
    7.1140   25.7960   17.9100 N   0  0  0  0  0  0  0  0  0  0  0  0
    7.5290   25.3050   16.6860 N   0  0  0  0  0  0  0  0  0  0  0  0
  1  2  1  0
  2  3  1  0
  1  4  1  6
  1  5  1  0
  1  6  1  0
  2  7  2  0
  5  8  2  0
  5  9  1  0
  6 10  2  0
  6 11  1  0
  8 12  1  0
  8 13  1  0
  9 14  2  0
  3 15  1  0
 10 16  1  0
 11 17  2  0
 12 18  1  0
 14 19  1  0
 13 20  2  0
 14 20  1  0
 15 21  1  0
 15 22  1  0
 16 23  2  0
 17 23  1  0
 23 24  1  0
 21 25  2  0
 22 26  2  0
 25 26  1  0
M  CHG  2   1   1   4  -1
M  END
>  <%Rank>  (227) 
89.68254

>  <N_hits>  (227) 
2

>  <submitter_name>  (227) 
nan

>  <original SMILES>  (227) 
nan

>  <∆G_unbound>  (227) 
1.319232

>  <∆G_bound>  (227) 
-0.243108

>  <regarded>  (227) 
mArh-x0228_1_A,mArh-mac-137_0_A

>  <ref_pdb>  (227) 
nan

>  <smiles>  (227) 
COc1ccc(C)cc1[N+]([O-])(C(=O)Nn1cnnc1)c1ccc(O)cc1

>  <submitter_email>  (227) 
nan

>  <disregarded>  (227) 


>  <LE>  (227) 
-0.06009

>  <submitter_institution>  (227) 
nan

>  <ref_mols>  (227) 
mArh-x0228_1_A,mArh-mac-137_0_A

>  <N_constrained_atoms>  (227) 
26.0

>  <ref_url>  (227) 
nan

>  <method>  (227) 
nan

>  <comRMSD>  (227) 
1.236982

>  <N_unconstrained_atoms>  (227) 
0.0

>  <∆∆G>  (227) 
-1.56234

>  <runtime>  (227) 
26.549242

>  <generation_date>  (227) 
nan

$$$$
mArh-6ywk_E_2_E-mArh-4gvw_0_A
     RDKit          3D

 15 15  0  0  0  0  0  0  0  0999 V2000
    1.1520   20.8020   -7.6180 O   0  0  0  0  0  0  0  0  0  0  0  0
    0.1110   19.8170   -7.3720 S   0  0  0  0  0  0  0  0  0  0  0  0
    0.2630   18.8750   -6.2920 O   0  0  0  0  0  0  0  0  0  0  0  0
   -0.0100   18.8440   -8.6650 O   0  0  0  0  0  0  0  0  0  0  0  0
   -1.5120   20.6020   -7.2590 C   0  0  0  0  0  0  0  0  0  0  0  0
   -1.5120   21.9260   -8.0020 C   0  0  0  0  0  0  0  0  0  0  0  0
   -2.7950   22.6720   -8.2000 N   0  0  0  0  0  0  0  0  0  0  0  0
   -3.0420   23.7460   -7.2620 C   0  0  0  0  0  0  0  0  0  0  0  0
   -4.0090   21.9630   -8.6240 C   0  0  0  0  0  0  0  0  0  0  0  0
   -4.0750   23.4260   -6.2000 C   0  0  0  0  0  0  0  0  0  0  0  0
   -5.0630   21.7910   -7.5090 C   0  0  0  0  0  0  0  0  0  0  0  0
   -5.3360   23.0080   -6.8130 N   0  0  0  0  0  0  0  0  0  0  0  0
   -5.6510   24.0550   -7.7560 C   0  0  0  0  0  0  0  0  0  0  0  0
   -6.8160   23.8960   -8.7530 C   0  0  0  0  0  0  0  0  0  0  0  0
   -7.1120   22.5310   -9.0500 O   0  0  0  0  0  0  0  0  0  0  0  0
  1  2  2  0
  2  3  2  0
  2  4  1  0
  2  5  1  0
  5  6  1  0
  6  7  1  0
  7  8  1  0
  7  9  1  0
  8 10  1  0
  9 11  1  0
 10 12  1  0
 11 12  1  0
 12 13  1  0
 13 14  1  0
 14 15  1  0
M  END
>  <%Rank>  (228) 
90.079365

>  <N_hits>  (228) 
2

>  <submitter_name>  (228) 
nan

>  <original SMILES>  (228) 
nan

>  <∆G_unbound>  (228) 
0.191787

>  <∆G_bound>  (228) 
-6.368498

>  <regarded>  (228) 
mArh-6ywk_E_2_E,mArh-4gvw_0_A

>  <ref_pdb>  (228) 
nan

>  <smiles>  (228) 
O=S(=O)(O)CCN1CCN(CCO)CC1

>  <submitter_email>  (228) 
nan

>  <disregarded>  (228) 


>  <LE>  (228) 
-0.437352

>  <submitter_institution>  (228) 
nan

>  <ref_mols>  (228) 
mArh-6ywk_E_2_E,mArh-4gvw_0_A

>  <N_constrained_atoms>  (228) 
15.0

>  <ref_url>  (228) 
nan

>  <method>  (228) 
nan

>  <comRMSD>  (228) 
1.289726

>  <N_unconstrained_atoms>  (228) 
0.0

>  <∆∆G>  (228) 
-6.560285

>  <runtime>  (228) 
22.988632

>  <generation_date>  (228) 
nan

$$$$
mArh-3vfq_B_0_A-mArh-6woj_B_0_B
     RDKit          3D

 69 77  0  0  0  0  0  0  0  0999 V2000
   -3.7240   15.6890   -6.2420 P   0  0  1  0  0  0  0  0  0  0  0  0
   -2.6540   14.9470   -5.1220 O   0  0  0  0  0  0  0  0  0  0  0  0
   -3.0900   15.2790   -3.8460 C   0  0  0  0  0  0  0  0  0  0  0  0
   -3.5290   14.8620   -7.5130 O   0  0  0  0  0  0  0  0  0  0  0  0
   -5.2320   15.1690   -5.8010 O   0  0  0  0  0  0  0  0  0  0  0  0
   -3.4260   17.2290   -6.5760 O   0  0  0  0  0  0  0  0  0  0  0  0
   -2.2240   18.3390   -6.6240 P   0  0  0  0  0  0  0  0  0  0  0  0
   -0.8990   18.3080   -5.4060 C   0  0  2  0  0  0  0  0  0  0  0  0
   -1.2760   18.1880   -8.0000 O   0  0  0  0  0  0  0  0  0  0  0  0
   -2.8410   20.0660   -6.9550 O   0  0  0  0  0  0  0  0  0  0  0  0
   -4.3710   14.5790   -3.4150 C   0  0  2  0  0  0  0  0  0  0  0  0
   -4.1560   20.3570   -7.0020 C   0  0  0  0  0  0  0  0  0  0  0  0
   -0.7870   17.0120   -5.0330 O   0  0  0  0  0  0  0  0  0  0  0  0
   -1.3900   19.0240   -4.3230 O   0  0  0  0  0  0  0  0  0  0  0  0
    0.2140   18.8930   -5.9370 O   0  0  0  0  0  0  0  0  0  0  0  0
   -4.4370   14.4470   -2.0610 O   0  0  0  0  0  0  0  0  0  0  0  0
   -4.5850   13.2190   -3.9990 C   0  0  1  0  0  0  0  0  0  0  0  0
   -3.3980   12.4920   -4.2010 O   0  0  0  0  0  0  0  0  0  0  0  0
    0.4490   16.4110   -4.8990 C   0  0  0  0  0  0  0  0  0  0  0  0
    0.0100   19.7580   -7.4010 P   0  0  1  0  0  0  0  0  0  0  0  0
   -5.4690   12.5820   -2.9770 C   0  0  2  0  0  0  0  0  0  0  0  0
   -4.8860   13.2010   -1.7400 C   0  0  2  0  0  0  0  0  0  0  0  0
   -4.7730   21.5090   -7.8490 C   0  0  1  0  0  0  0  0  0  0  0  0
   -5.3620   11.1850   -2.9380 O   0  0  0  0  0  0  0  0  0  0  0  0
    1.0710   20.8360   -7.5050 O   0  0  0  0  0  0  0  0  0  0  0  0
    0.3370   18.6880   -8.6780 O   0  0  0  0  0  0  0  0  0  0  0  0
   -1.5120   20.3900   -7.5610 O   0  0  0  0  0  0  0  0  0  0  0  0
   -4.2940   22.2240   -9.1030 C   0  0  2  0  0  0  0  0  0  0  0  0
   -6.1920   21.1740   -8.2460 C   0  0  1  0  0  0  0  0  0  0  0  0
   -5.9020   13.3590   -0.7150 N   0  0  0  0  0  0  0  0  0  0  0  0
    0.3270   15.0160   -4.3160 C   0  0  2  0  0  0  0  0  0  0  0  0
   -3.5690   23.3980   -9.0030 O   0  0  0  0  0  0  0  0  0  0  0  0
   -6.9230   20.8510   -7.1570 O   0  0  0  0  0  0  0  0  0  0  0  0
   -1.6720   21.5540   -8.2020 C   0  0  0  0  0  0  0  0  0  0  0  0
   -5.5440   22.7840   -9.7870 C   0  0  2  0  0  0  0  0  0  0  0  0
   -5.7470   14.0540    0.4050 C   0  0  0  0  0  0  0  0  0  0  0  0
   -7.1330   12.8240   -0.7530 C   0  0  0  0  0  0  0  0  0  0  0  0
    1.2550   14.7880   -3.3290 O   0  0  0  0  0  0  0  0  0  0  0  0
    0.4010   13.8320   -5.2070 C   0  0  1  0  0  0  0  0  0  0  0  0
   -6.6310   22.5290   -8.7890 C   0  0  0  0  0  0  0  0  0  0  0  0
   -5.8550   22.2360  -11.0260 O   0  0  0  0  0  0  0  0  0  0  0  0
    1.3180   13.8450   -6.1920 O   0  0  0  0  0  0  0  0  0  0  0  0
   -6.8920   13.9620    1.1150 C   0  0  0  0  0  0  0  0  0  0  0  0
   -4.7120   14.7640    0.8860 N   0  0  0  0  0  0  0  0  0  0  0  0
   -7.7480   13.2050    0.3930 N   0  0  0  0  0  0  0  0  0  0  0  0
    0.8460   12.7140   -4.2640 C   0  0  1  0  0  0  0  0  0  0  0  0
    0.9890   13.4610   -2.9740 C   0  0  2  0  0  0  0  0  0  0  0  0
   -3.1380   23.6060   -7.7400 C   0  0  2  0  0  0  0  0  0  0  0  0
   -2.1820   22.5940   -7.2940 C   0  0  1  0  0  0  0  0  0  0  0  0
   -0.0360   11.6620   -4.2410 O   0  0  0  0  0  0  0  0  0  0  0  0
   -7.0420   14.5730    2.3460 C   0  0  0  0  0  0  0  0  0  0  0  0
   -4.8480   15.3530    2.0660 C   0  0  0  0  0  0  0  0  0  0  0  0
   -0.1540   13.3690   -2.1050 N   0  0  0  0  0  0  0  0  0  0  0  0
   -4.1970   23.6610   -6.6170 C   0  0  1  0  0  0  0  0  0  0  0  0
   -2.7780   21.9600   -6.1930 O   0  0  0  0  0  0  0  0  0  0  0  0
   -8.2150   14.4920    3.1100 N   0  0  0  0  0  0  0  0  0  0  0  0
   -5.4970   23.9860   -7.0010 O   0  0  0  0  0  0  0  0  0  0  0  0
   -5.9750   15.2580    2.7740 N   0  0  0  0  0  0  0  0  0  0  0  0
   -0.2980   13.9520   -0.9310 C   0  0  0  0  0  0  0  0  0  0  0  0
   -1.2980   12.6850   -2.2900 C   0  0  0  0  0  0  0  0  0  0  0  0
   -4.1480   22.1470   -6.3770 C   0  0  1  0  0  0  0  0  0  0  0  0
   -4.9390   21.6810   -5.3400 O   0  0  0  0  0  0  0  0  0  0  0  0
   -1.5010   13.6550   -0.3440 C   0  0  0  0  0  0  0  0  0  0  0  0
    0.5500   14.7510   -0.2870 N   0  0  0  0  0  0  0  0  0  0  0  0
   -2.1120   12.8610   -1.2300 N   0  0  0  0  0  0  0  0  0  0  0  0
   -1.8540   14.1490    0.9050 C   0  0  0  0  0  0  0  0  0  0  0  0
    0.2160   15.2280    0.8950 C   0  0  0  0  0  0  0  0  0  0  0  0
   -3.0800   13.8430    1.5320 N   0  0  0  0  0  0  0  0  0  0  0  0
   -0.9710   14.9340    1.5070 N   0  0  0  0  0  0  0  0  0  0  0  0
  1  2  1  0
  2  3  1  0
  1  4  2  0
  1  5  1  1
  1  6  1  0
  6  7  1  0
  7  8  1  0
  7  9  1  0
  7 10  1  0
 11  3  1  1
 10 12  1  0
  8 13  1  0
  8 14  1  1
  8 15  1  0
 11 16  1  0
 11 17  1  0
 17 18  1  1
 13 19  1  0
 15 20  1  0
 17 21  1  0
 16 22  1  0
 21 22  1  0
 23 12  1  6
 21 24  1  1
 20 25  2  0
 20 26  1  6
 20 27  1  0
 23 28  1  0
 23 29  1  0
 22 30  1  1
 31 19  1  6
 28 32  1  1
 29 33  1  1
 27 34  1  0
 28 35  1  0
 30 36  1  0
 30 37  1  0
 31 38  1  0
 31 39  1  0
 29 40  1  0
 35 40  1  0
 35 41  1  6
 39 42  1  6
 36 43  2  0
 36 44  1  0
 37 45  2  0
 43 45  1  0
 39 46  1  0
 38 47  1  0
 46 47  1  0
 48 32  1  6
 49 34  1  6
 48 49  1  0
 46 50  1  1
 43 51  1  0
 44 52  2  0
 47 53  1  6
 48 54  1  0
 49 55  1  0
 51 56  1  0
 54 57  1  6
 51 58  2  0
 52 58  1  0
 53 59  1  0
 53 60  1  0
 54 61  1  0
 55 61  1  0
 61 62  1  1
 59 63  2  0
 59 64  1  0
 60 65  2  0
 63 65  1  0
 63 66  1  0
 64 67  2  0
 66 68  1  0
 66 69  2  0
 67 69  1  0
M  END
>  <%Rank>  (229) 
90.47619

>  <N_hits>  (229) 
2

>  <submitter_name>  (229) 
nan

>  <original SMILES>  (229) 
nan

>  <∆G_unbound>  (229) 
15.016817

>  <∆G_bound>  (229) 
14.974817

>  <regarded>  (229) 
mArh-3vfq_B_0_A,mArh-6woj_B_0_B

>  <ref_pdb>  (229) 
nan

>  <smiles>  (229) 
Nc1ncnc2c1ncn2C1OC(COC2(O)O[P@@](=O)(O)OCC3OC(O)C(O)C3OC3C(O)CC(O)C3CO[PH]2(O)O[P@@](=O)(O)OCC2OC(n3cnc4c(N)ncnc43)C(O)C2O)C(O)C1O

>  <submitter_email>  (229) 
nan

>  <disregarded>  (229) 


>  <LE>  (229) 
-0.000609

>  <submitter_institution>  (229) 
nan

>  <ref_mols>  (229) 
mArh-3vfq_B_0_A,mArh-6woj_B_0_B

>  <N_constrained_atoms>  (229) 
66.0

>  <ref_url>  (229) 
nan

>  <method>  (229) 
nan

>  <comRMSD>  (229) 
1.560501

>  <N_unconstrained_atoms>  (229) 
3.0

>  <∆∆G>  (229) 
-0.042001

>  <runtime>  (229) 
129.775805

>  <generation_date>  (229) 
nan

$$$$
mArh-x0962_0_A-mArh-5mqx_0_A
     RDKit          3D

 43 47  0  0  0  0  0  0  0  0999 V2000
   -3.9640   14.6570   -3.3990 N   0  0  0  0  0  0  0  0  0  0  0  0
   -4.0940   13.6890   -2.3180 C   0  0  2  0  0  0  0  0  0  0  0  0
   -5.1410   14.1660   -1.3500 C   0  0  0  0  0  0  0  0  0  0  0  0
   -2.9780   13.7570   -1.3840 C   0  0  0  0  0  0  0  0  0  0  0  0
   -4.9720   13.9270    0.0080 N   0  0  0  0  0  0  0  0  0  0  0  0
   -6.3350   14.8450   -1.4120 C   0  0  0  0  0  0  0  0  0  0  0  0
   -3.4480   14.1960   -0.2760 N   0  0  0  0  0  0  0  0  0  0  0  0
   -1.5990   13.5100   -1.3150 N   0  0  0  0  0  0  0  0  0  0  0  0
   -6.0260   14.4480    0.6790 C   0  0  0  0  0  0  0  0  0  0  0  0
   -6.8700   15.0060   -0.1520 N   0  0  0  0  0  0  0  0  0  0  0  0
   -0.4920   13.0550   -2.1460 C   0  0  2  0  0  0  0  0  0  0  0  0
   -2.4530   14.2510    0.5320 C   0  0  0  0  0  0  0  0  0  0  0  0
   -1.2850   13.8350   -0.0430 C   0  0  0  0  0  0  0  0  0  0  0  0
   -0.3190   13.9390   -3.2470 O   0  0  0  0  0  0  0  0  0  0  0  0
   -0.4900   11.6580   -2.7910 C   0  0  1  0  0  0  0  0  0  0  0  0
   -2.4590   14.6480    1.7870 C   0  0  0  0  0  0  0  0  0  0  0  0
   -0.0880   13.7590    0.5030 N   0  0  0  0  0  0  0  0  0  0  0  0
   -1.0480   10.5850   -2.0150 O   0  0  0  0  0  0  0  0  0  0  0  0
   -3.5960   15.0960    2.4370 N   0  0  0  0  0  0  0  0  0  0  0  0
   -1.4030   13.5020   -4.0760 C   0  0  2  0  0  0  0  0  0  0  0  0
   -1.2740   11.9470   -4.0800 C   0  0  1  0  0  0  0  0  0  0  0  0
   -1.3050   14.5850    2.3740 N   0  0  0  0  0  0  0  0  0  0  0  0
   -0.2150   14.1680    1.7550 C   0  0  0  0  0  0  0  0  0  0  0  0
   -1.3950   14.2500   -5.4130 C   0  0  0  0  0  0  0  0  0  0  0  0
   -0.4950   11.4680   -5.1760 O   0  0  0  0  0  0  0  0  0  0  0  0
   -1.1760   15.6880   -5.2570 O   0  0  0  0  0  0  0  0  0  0  0  0
   -2.4520   16.6820   -5.1870 P   0  0  2  0  0  0  0  0  0  0  0  0
   -3.4180   16.1530   -4.1970 O   0  0  0  0  0  0  0  0  0  0  0  0
   -3.1420   16.6710   -6.6450 O   0  0  0  0  0  0  0  0  0  0  0  0
   -2.0540   18.2460   -4.9330 O   0  0  0  0  0  0  0  0  0  0  0  0
   -2.3800   19.6530   -5.7370 P   0  0  2  0  0  0  0  0  0  0  0  0
   -1.2200   20.1980   -6.4410 O   0  0  0  0  0  0  0  0  0  0  0  0
   -2.8010   20.6810   -4.5720 O   0  0  0  0  0  0  0  0  0  0  0  0
   -3.7090   19.5790   -6.6880 O   0  0  0  0  0  0  0  0  0  0  0  0
   -4.8010   20.5640   -6.7980 C   0  0  0  0  0  0  0  0  0  0  0  0
   -5.9030   19.8500   -7.6660 C   0  0  2  0  0  0  0  0  0  0  0  0
   -7.0300   20.4640   -8.4790 C   0  0  1  0  0  0  0  0  0  0  0  0
   -6.3500   18.6240   -7.1160 O   0  0  0  0  0  0  0  0  0  0  0  0
   -6.6790   21.1920   -9.6430 O   0  0  0  0  0  0  0  0  0  0  0  0
   -7.1470   18.0020   -8.0990 C   0  0  2  0  0  0  0  0  0  0  0  0
   -7.9220   19.1870   -8.7750 C   0  0  2  0  0  0  0  0  0  0  0  0
   -8.0210   17.0420   -7.5280 O   0  0  0  0  0  0  0  0  0  0  0  0
   -8.1720   18.9930  -10.1530 O   0  0  0  0  0  0  0  0  0  0  0  0
  2  1  1  6
  2  3  1  0
  2  4  1  0
  3  5  1  0
  3  6  2  0
  4  7  2  0
  4  8  1  0
  5  9  1  0
  6 10  1  0
  9 10  2  0
 11  8  1  6
  7 12  1  0
  8 13  1  0
 12 13  2  0
 11 14  1  0
 11 15  1  0
 12 16  1  0
 13 17  1  0
 15 18  1  1
 16 19  1  0
 14 20  1  0
 15 21  1  0
 20 21  1  0
 16 22  2  0
 17 23  2  0
 22 23  1  0
 20 24  1  6
 21 25  1  6
 24 26  1  0
 26 27  1  0
 27 28  2  0
 27 29  1  6
 27 30  1  0
 30 31  1  0
 31 32  2  0
 31 33  1  1
 31 34  1  0
 34 35  1  0
 36 35  1  1
 36 37  1  0
 36 38  1  0
 37 39  1  6
 38 40  1  0
 37 41  1  0
 40 41  1  0
 40 42  1  1
 41 43  1  6
M  END
>  <%Rank>  (230) 
90.873016

>  <N_hits>  (230) 
2

>  <submitter_name>  (230) 
nan

>  <original SMILES>  (230) 
nan

>  <∆G_unbound>  (230) 
7.982375

>  <∆G_bound>  (230) 
7.851891

>  <regarded>  (230) 
mArh-x0962_0_A,mArh-5mqx_0_A

>  <ref_pdb>  (230) 
nan

>  <smiles>  (230) 
Nc1ncnc2c1nc(C(N)c1cnc[nH]1)n2C1OC(CO[P@](=O)(O)O[P@@](=O)(O)OCC2OC(O)C(O)C2O)C(O)C1O

>  <submitter_email>  (230) 
nan

>  <disregarded>  (230) 


>  <LE>  (230) 
-0.003035

>  <submitter_institution>  (230) 
nan

>  <ref_mols>  (230) 
mArh-x0962_0_A,mArh-5mqx_0_A

>  <N_constrained_atoms>  (230) 
43.0

>  <ref_url>  (230) 
nan

>  <method>  (230) 
nan

>  <comRMSD>  (230) 
1.531368

>  <N_unconstrained_atoms>  (230) 
0.0

>  <∆∆G>  (230) 
-0.130484

>  <runtime>  (230) 
48.338636

>  <generation_date>  (230) 
nan

$$$$
mArh-x0282_0_A-mArh-4j4z_0_A
     RDKit          3D

 31 33  0  0  0  0  0  0  0  0999 V2000
   -7.6280   14.4440    1.1480 C   0  0  0  0  0  0  0  0  0  0  0  0
   -8.4360   14.6350   -0.0030 O   0  0  0  0  0  0  0  0  0  0  0  0
   -6.1360   14.3380    0.7960 C   0  0  0  0  0  0  0  0  0  0  0  0
   -5.2170   14.9320    1.8120 C   0  0  0  0  0  0  0  0  0  0  0  0
   -5.7250   14.9210   -0.5520 C   0  0  0  0  0  0  0  0  0  0  0  0
   -3.9230   14.1780    1.7020 C   0  0  0  0  0  0  0  0  0  0  0  0
   -4.2390   14.6220   -0.8400 C   0  0  0  0  0  0  0  0  0  0  0  0
   -3.4200   14.2920    0.3430 N   0  0  0  0  0  0  0  0  0  0  0  0
   -2.0770   14.4830    0.2620 C   0  0  0  0  0  0  0  0  0  0  0  0
   -1.5240   14.6740   -0.9600 N   0  0  0  0  0  0  0  0  0  0  0  0
   -1.3820   14.4740    1.4150 N   0  0  0  0  0  0  0  0  0  0  0  0
   -0.1960   14.8800   -1.0330 C   0  0  0  0  0  0  0  0  0  0  0  0
   -0.0800   14.6730    1.2870 C   0  0  0  0  0  0  0  0  0  0  0  0
    0.5640   15.1310   -2.3260 C   0  0  0  0  0  0  0  0  0  0  0  0
    0.5520   14.8910    0.0700 C   0  0  0  0  0  0  0  0  0  0  0  0
    0.2540   14.2340   -3.5150 C   0  0  0  0  0  0  0  0  0  0  0  0
   -1.2400   14.0890   -3.8660 C   0  0  1  0  0  0  0  0  0  0  0  0
   -1.7980   15.2730   -4.6910 C   0  0  0  0  0  0  0  0  0  0  0  0
   -1.6310   12.7250   -4.2560 N   0  0  0  0  0  0  0  0  0  0  0  0
   -0.8250   16.7610   -4.9180 S   0  0  0  0  0  0  0  0  0  0  0  0
   -2.9710   12.3750   -3.7730 C   0  0  0  0  0  0  0  0  0  0  0  0
   -0.6970   11.6510   -3.8690 C   0  0  0  0  0  0  0  0  0  0  0  0
    0.1300   17.0090   -3.6710 O   0  0  0  0  0  0  0  0  0  0  0  0
   -0.2280   16.8950   -6.2060 O   0  0  0  0  0  0  0  0  0  0  0  0
   -2.0150   17.8680   -4.8770 O   0  0  0  0  0  0  0  0  0  0  0  0
   -3.4880   11.2860   -4.4430 C   0  0  0  0  0  0  0  0  0  0  0  0
   -1.3840   10.2930   -3.5840 C   0  0  0  0  0  0  0  0  0  0  0  0
   -2.7310   10.0590   -4.1940 N   0  0  0  0  0  0  0  0  0  0  0  0
   -3.5780    9.1150   -3.4460 C   0  0  0  0  0  0  0  0  0  0  0  0
   -3.6750    7.6780   -4.0110 C   0  0  0  0  0  0  0  0  0  0  0  0
   -3.6170    6.7510   -2.9380 O   0  0  0  0  0  0  0  0  0  0  0  0
  1  2  1  0
  1  3  1  0
  3  4  1  0
  3  5  1  0
  4  6  1  0
  5  7  1  0
  6  8  1  0
  7  8  1  0
  8  9  1  0
  9 10  2  0
  9 11  1  0
 10 12  1  0
 11 13  2  0
 12 14  1  0
 12 15  2  0
 13 15  1  0
 14 16  1  0
 17 16  1  6
 17 18  1  0
 17 19  1  0
 18 20  1  0
 19 21  1  0
 19 22  1  0
 20 23  2  0
 20 24  2  0
 20 25  1  0
 21 26  1  0
 22 27  1  0
 26 28  1  0
 27 28  1  0
 28 29  1  0
 29 30  1  0
 30 31  1  0
M  END
>  <%Rank>  (231) 
91.269841

>  <N_hits>  (231) 
2

>  <submitter_name>  (231) 
nan

>  <original SMILES>  (231) 
nan

>  <∆G_unbound>  (231) 
1.184433

>  <∆G_bound>  (231) 
-4.439717

>  <regarded>  (231) 
mArh-x0282_0_A,mArh-4j4z_0_A

>  <ref_pdb>  (231) 
nan

>  <smiles>  (231) 
O=S(=O)(O)CC(CCc1ccnc(N2CCC(CO)CC2)n1)N1CCN(CCO)CC1

>  <submitter_email>  (231) 
nan

>  <disregarded>  (231) 


>  <LE>  (231) 
-0.181424

>  <submitter_institution>  (231) 
nan

>  <ref_mols>  (231) 
mArh-x0282_0_A,mArh-4j4z_0_A

>  <N_constrained_atoms>  (231) 
29.0

>  <ref_url>  (231) 
nan

>  <method>  (231) 
nan

>  <comRMSD>  (231) 
1.458273

>  <N_unconstrained_atoms>  (231) 
2.0

>  <∆∆G>  (231) 
-5.62415

>  <runtime>  (231) 
35.943588

>  <generation_date>  (231) 
nan

$$$$
mArh-x0574_0_A-mArh-x0910_0_A
     RDKit          3D

 17 19  0  0  0  0  0  0  0  0999 V2000
    0.2600   14.0110    2.3580 N   0  0  0  0  0  0  0  0  0  0  0  0
   -0.6960   14.2430    1.5240 C   0  0  0  0  0  0  0  0  0  0  0  0
   -1.8790   14.3310    1.9650 N   0  0  0  0  0  0  0  0  0  0  0  0
   -0.4380   14.4390   -0.1510 S   0  0  0  0  0  0  0  0  0  0  0  0
   -2.7110   14.5500    0.9410 C   0  0  0  0  0  0  0  0  0  0  0  0
   -2.1240   14.6460   -0.3170 C   0  0  0  0  0  0  0  0  0  0  0  0
   -4.0610   14.6710    1.0840 C   0  0  0  0  0  0  0  0  0  0  0  0
   -2.8730   14.8730   -1.4660 C   0  0  0  0  0  0  0  0  0  0  0  0
   -4.7920   14.8840   -0.0500 C   0  0  0  0  0  0  0  0  0  0  0  0
   -4.2300   14.9910   -1.3000 C   0  0  0  0  0  0  0  0  0  0  0  0
   -6.1620   15.0040   -0.0010 C   0  0  0  0  0  0  0  0  0  0  0  0
   -6.8300   15.5690   -0.9630 N   0  0  0  0  0  0  0  0  0  0  0  0
   -6.9650   14.5840    0.9830 N   0  0  0  0  0  0  0  0  0  0  0  0
   -8.1200   15.5330   -0.6090 N   0  0  0  0  0  0  0  0  0  0  0  0
   -8.1830   14.9400    0.5590 C   0  0  0  0  0  0  0  0  0  0  0  0
   -6.6680   13.9050    2.2270 C   0  0  0  0  0  0  0  0  0  0  0  0
   -6.4300   14.8550    3.3770 C   0  0  0  0  0  0  0  0  0  0  0  0
  1  2  1  0
  2  3  2  0
  2  4  1  0
  3  5  1  0
  4  6  1  0
  5  6  2  0
  5  7  1  0
  6  8  1  0
  7  9  2  0
  8 10  2  0
  9 10  1  0
  9 11  1  0
 11 12  2  0
 11 13  1  0
 12 14  1  0
 13 15  1  0
 14 15  2  0
 13 16  1  0
 16 17  1  0
M  END
>  <%Rank>  (232) 
91.666667

>  <N_hits>  (232) 
2

>  <submitter_name>  (232) 
nan

>  <original SMILES>  (232) 
nan

>  <∆G_unbound>  (232) 
0.039855

>  <∆G_bound>  (232) 
-7.784966

>  <regarded>  (232) 
mArh-x0574_0_A,mArh-x0910_0_A

>  <ref_pdb>  (232) 
nan

>  <smiles>  (232) 
CCn1cnnc1-c1ccc2sc(N)nc2c1

>  <submitter_email>  (232) 
nan

>  <disregarded>  (232) 


>  <LE>  (232) 
-0.460284

>  <submitter_institution>  (232) 
nan

>  <ref_mols>  (232) 
mArh-x0574_0_A,mArh-x0910_0_A

>  <N_constrained_atoms>  (232) 
16.0

>  <ref_url>  (232) 
nan

>  <method>  (232) 
nan

>  <comRMSD>  (232) 
1.399265

>  <N_unconstrained_atoms>  (232) 
1.0

>  <∆∆G>  (232) 
-7.824821

>  <runtime>  (232) 
25.288974

>  <generation_date>  (232) 
nan

$$$$
mArh-6ywk_E_2_E-mArh-5fud_B_0_B
     RDKit          3D

 17 17  0  0  0  0  0  0  0  0999 V2000
    1.0910   20.9950   -7.7360 O   0  0  0  0  0  0  0  0  0  0  0  0
    0.3060   19.8520   -7.3220 S   0  0  0  0  0  0  0  0  0  0  0  0
    0.6990   18.9840   -6.2390 O   0  0  0  0  0  0  0  0  0  0  0  0
    0.0780   18.8440   -8.5950 O   0  0  0  0  0  0  0  0  0  0  0  0
   -1.3740   20.4820   -6.8760 C   0  0  0  0  0  0  0  0  0  0  0  0
   -2.3460   21.0390   -7.8920 C   0  0  2  0  0  0  0  0  0  0  0  0
   -1.7350   20.2910   -5.7300 O   0  0  0  0  0  0  0  0  0  0  0  0
   -1.5090   20.4930   -8.9560 C   0  0  0  0  0  0  0  0  0  0  0  0
   -2.6700   22.4530   -8.2640 N   0  0  0  0  0  0  0  0  0  0  0  0
   -3.0120   23.4680   -7.2670 C   0  0  0  0  0  0  0  0  0  0  0  0
   -3.9380   22.2610   -9.0140 C   0  0  0  0  0  0  0  0  0  0  0  0
   -4.1380   23.0520   -6.2940 C   0  0  0  0  0  0  0  0  0  0  0  0
   -5.0450   21.7200   -8.0730 C   0  0  0  0  0  0  0  0  0  0  0  0
   -5.3730   22.7180   -7.0440 N   0  0  0  0  0  0  0  0  0  0  0  0
   -5.7140   23.9810   -7.6920 C   0  0  0  0  0  0  0  0  0  0  0  0
   -6.8300   23.9630   -8.7520 C   0  0  0  0  0  0  0  0  0  0  0  0
   -7.2000   22.6350   -9.1260 O   0  0  0  0  0  0  0  0  0  0  0  0
  1  2  2  0
  2  3  2  0
  2  4  1  0
  2  5  1  0
  5  6  1  0
  5  7  2  0
  6  8  1  6
  6  9  1  0
  9 10  1  0
  9 11  1  0
 10 12  1  0
 11 13  1  0
 12 14  1  0
 13 14  1  0
 14 15  1  0
 15 16  1  0
 16 17  1  0
M  END
>  <%Rank>  (233) 
92.063492

>  <N_hits>  (233) 
2

>  <submitter_name>  (233) 
nan

>  <original SMILES>  (233) 
nan

>  <∆G_unbound>  (233) 
0.620434

>  <∆G_bound>  (233) 
-3.375053

>  <regarded>  (233) 
mArh-6ywk_E_2_E,mArh-5fud_B_0_B

>  <ref_pdb>  (233) 
nan

>  <smiles>  (233) 
CC(C(=O)S(=O)(=O)O)N1CCN(CCO)CC1

>  <submitter_email>  (233) 
nan

>  <disregarded>  (233) 


>  <LE>  (233) 
-0.235029

>  <submitter_institution>  (233) 
nan

>  <ref_mols>  (233) 
mArh-6ywk_E_2_E,mArh-5fud_B_0_B

>  <N_constrained_atoms>  (233) 
17.0

>  <ref_url>  (233) 
nan

>  <method>  (233) 
nan

>  <comRMSD>  (233) 
1.348398

>  <N_unconstrained_atoms>  (233) 
0.0

>  <∆∆G>  (233) 
-3.995487

>  <runtime>  (233) 
42.374645

>  <generation_date>  (233) 
nan

$$$$
mArh-6ywk_E_2_E-mArh-5fud_A_0_A
     RDKit          3D

 17 17  0  0  0  0  0  0  0  0999 V2000
    1.2040   20.7050   -7.5200 O   0  0  0  0  0  0  0  0  0  0  0  0
    0.3680   19.5540   -7.2360 S   0  0  0  0  0  0  0  0  0  0  0  0
    0.6720   18.6340   -6.1780 O   0  0  0  0  0  0  0  0  0  0  0  0
    0.1600   18.6750   -8.5860 O   0  0  0  0  0  0  0  0  0  0  0  0
   -1.3280   20.1320   -6.9390 C   0  0  0  0  0  0  0  0  0  0  0  0
   -1.8030   21.4550   -7.4900 C   0  0  1  0  0  0  0  0  0  0  0  0
   -2.0300   19.3390   -6.3040 O   0  0  0  0  0  0  0  0  0  0  0  0
   -1.7210   21.1800   -8.9120 C   0  0  0  0  0  0  0  0  0  0  0  0
   -3.0920   21.9640   -7.0840 N   0  0  0  0  0  0  0  0  0  0  0  0
   -3.2100   23.4060   -7.2510 C   0  0  0  0  0  0  0  0  0  0  0  0
   -4.2520   21.3360   -7.7080 C   0  0  0  0  0  0  0  0  0  0  0  0
   -4.3070   23.8270   -6.5250 C   0  0  0  0  0  0  0  0  0  0  0  0
   -5.4090   21.7010   -7.0410 C   0  0  0  0  0  0  0  0  0  0  0  0
   -5.5880   23.1570   -6.8820 N   0  0  0  0  0  0  0  0  0  0  0  0
   -6.0660   23.7610   -8.1330 C   0  0  0  0  0  0  0  0  0  0  0  0
   -6.4860   22.7510   -9.2020 C   0  0  0  0  0  0  0  0  0  0  0  0
   -7.8970   22.8070   -9.4180 O   0  0  0  0  0  0  0  0  0  0  0  0
  1  2  2  0
  2  3  2  0
  2  4  1  0
  2  5  1  0
  5  6  1  0
  5  7  2  0
  6  8  1  6
  6  9  1  0
  9 10  1  0
  9 11  1  0
 10 12  1  0
 11 13  1  0
 12 14  1  0
 13 14  1  0
 14 15  1  0
 15 16  1  0
 16 17  1  0
M  END
>  <%Rank>  (234) 
92.460317

>  <N_hits>  (234) 
2

>  <submitter_name>  (234) 
nan

>  <original SMILES>  (234) 
nan

>  <∆G_unbound>  (234) 
0.42584

>  <∆G_bound>  (234) 
-6.232101

>  <regarded>  (234) 
mArh-6ywk_E_2_E,mArh-5fud_A_0_A

>  <ref_pdb>  (234) 
nan

>  <smiles>  (234) 
CC(C(=O)S(=O)(=O)O)N1CCN(CCO)CC1

>  <submitter_email>  (234) 
nan

>  <disregarded>  (234) 


>  <LE>  (234) 
-0.391644

>  <submitter_institution>  (234) 
nan

>  <ref_mols>  (234) 
mArh-6ywk_E_2_E,mArh-5fud_A_0_A

>  <N_constrained_atoms>  (234) 
17.0

>  <ref_url>  (234) 
nan

>  <method>  (234) 
nan

>  <comRMSD>  (234) 
1.434783

>  <N_unconstrained_atoms>  (234) 
0.0

>  <∆∆G>  (234) 
-6.657941

>  <runtime>  (234) 
22.508227

>  <generation_date>  (234) 
nan

$$$$
mArh-3vfq_B_0_A-mArh-x0689_0_A
     RDKit          3D

 44 48  0  0  0  0  0  0  0  0999 V2000
   -3.7680   15.8450   -6.0960 P   0  0  2  0  0  0  0  0  0  0  0  0
   -2.6010   15.3330   -5.1820 O   0  0  0  0  0  0  0  0  0  0  0  0
   -2.7000   15.5080   -3.7920 C   0  0  0  0  0  0  0  0  0  0  0  0
   -5.1240   15.4510   -5.6420 O   0  0  0  0  0  0  0  0  0  0  0  0
   -3.6010   15.0580   -7.4530 O   0  0  0  0  0  0  0  0  0  0  0  0
   -3.4200   17.3610   -6.5440 O   0  0  0  0  0  0  0  0  0  0  0  0
   -2.2680   18.4440   -6.3700 P   0  0  1  0  0  0  0  0  0  0  0  0
   -1.7500   18.6690   -5.0010 O   0  0  0  0  0  0  0  0  0  0  0  0
   -1.2150   17.8420   -7.3510 O   0  0  0  0  0  0  0  0  0  0  0  0
   -2.6990   19.7290   -7.2630 O   0  0  0  0  0  0  0  0  0  0  0  0
   -3.7200   14.6300   -3.0780 C   0  0  2  0  0  0  0  0  0  0  0  0
   -3.4110   20.9040   -6.8000 C   0  0  0  0  0  0  0  0  0  0  0  0
   -3.4020   14.5090   -1.6850 O   0  0  0  0  0  0  0  0  0  0  0  0
   -3.8640   13.1990   -3.5800 C   0  0  1  0  0  0  0  0  0  0  0  0
   -2.6320   12.4720   -3.6700 O   0  0  0  0  0  0  0  0  0  0  0  0
   -4.7000   12.6620   -2.4380 C   0  0  2  0  0  0  0  0  0  0  0  0
   -3.9740   13.2670   -1.2090 C   0  0  2  0  0  0  0  0  0  0  0  0
   -4.2590   21.5390   -7.9430 C   0  0  1  0  0  0  0  0  0  0  0  0
   -4.7190   11.2340   -2.4390 O   0  0  0  0  0  0  0  0  0  0  0  0
   -5.7100   22.0150   -7.6890 C   0  0  1  0  0  0  0  0  0  0  0  0
   -3.6810   22.6340   -8.6100 O   0  0  0  0  0  0  0  0  0  0  0  0
   -4.9020   13.4990   -0.1210 N   0  0  0  0  0  0  0  0  0  0  0  0
   -5.7690   23.0000   -6.6590 O   0  0  0  0  0  0  0  0  0  0  0  0
   -4.6150   22.7220   -9.6820 C   0  0  1  0  0  0  0  0  0  0  0  0
   -6.0140   22.6390   -9.0450 C   0  0  1  0  0  0  0  0  0  0  0  0
   -4.3500   13.9510    1.1660 C   0  0  1  0  0  0  0  0  0  0  0  0
   -5.8460   14.5280   -0.4670 C   0  0  0  0  0  0  0  0  0  0  0  0
   -4.4710   23.9800  -10.2930 O   0  0  0  0  0  0  0  0  0  0  0  0
   -6.9130   21.8300   -9.8160 O   0  0  0  0  0  0  0  0  0  0  0  0
   -5.2500   15.0840    1.6290 C   0  0  1  0  0  0  0  0  0  0  0  0
   -4.3530   12.8760    2.0490 N   0  0  0  0  0  0  0  0  0  0  0  0
   -5.5160   15.6620    0.3530 N   0  0  0  0  0  0  0  0  0  0  0  0
   -4.1430   16.0450    0.3470 C   0  0  0  0  0  0  0  0  0  0  0  0
   -6.3550   14.7600    2.6390 C   0  0  1  0  0  0  0  0  0  0  0  0
   -5.6790   12.4320    2.2440 C   0  0  0  0  0  0  0  0  0  0  0  0
   -7.7110   15.1380    2.3370 N   0  0  0  0  0  0  0  0  0  0  0  0
   -3.3200   15.2960    1.2420 N   0  0  0  0  0  0  0  0  0  0  0  0
   -6.4800   13.3890    2.9670 N   0  0  0  0  0  0  0  0  0  0  0  0
   -2.1360   14.8770    0.7600 C   0  0  0  0  0  0  0  0  0  0  0  0
   -1.9030   14.8800   -0.5550 N   0  0  0  0  0  0  0  0  0  0  0  0
   -1.2950   14.4940    1.6960 N   0  0  0  0  0  0  0  0  0  0  0  0
   -0.7000   14.4690   -0.9410 C   0  0  0  0  0  0  0  0  0  0  0  0
   -0.1180   14.0950    1.2700 C   0  0  0  0  0  0  0  0  0  0  0  0
    0.2520   14.0610   -0.0620 C   0  0  0  0  0  0  0  0  0  0  0  0
  1  2  1  0
  2  3  1  0
  1  4  2  0
  1  5  1  6
  1  6  1  0
  6  7  1  0
  7  8  2  0
  7  9  1  6
  7 10  1  0
 11  3  1  6
 10 12  1  0
 11 13  1  0
 11 14  1  0
 14 15  1  1
 14 16  1  0
 13 17  1  0
 16 17  1  0
 18 12  1  1
 16 19  1  1
 18 20  1  0
 18 21  1  0
 17 22  1  1
 20 23  1  1
 21 24  1  0
 20 25  1  0
 24 25  1  0
 22 26  1  0
 22 27  1  0
 24 28  1  1
 25 29  1  6
 26 30  1  0
 26 31  1  1
 27 32  1  0
 30 32  1  6
 32 33  1  0
 30 34  1  0
 31 35  1  0
 34 36  1  6
 33 37  1  0
 34 38  1  0
 35 38  1  0
 37 39  1  0
 39 40  2  0
 39 41  1  0
 40 42  1  0
 41 43  2  0
 42 44  2  0
 43 44  1  0
M  END
>  <%Rank>  (235) 
92.857143

>  <N_hits>  (235) 
2

>  <submitter_name>  (235) 
nan

>  <original SMILES>  (235) 
nan

>  <∆G_unbound>  (235) 
7.279257

>  <∆G_bound>  (235) 
4.594029

>  <regarded>  (235) 
mArh-3vfq_B_0_A,mArh-x0689_0_A

>  <ref_pdb>  (235) 
nan

>  <smiles>  (235) 
NC1NCNC2C1N(CNc1ncccn1)CN2C1OC(CO[P@](=O)(O)O[P@@](=O)(O)OCC2OC(O)C(O)C2O)C(O)C1O

>  <submitter_email>  (235) 
nan

>  <disregarded>  (235) 


>  <LE>  (235) 
-0.061028

>  <submitter_institution>  (235) 
nan

>  <ref_mols>  (235) 
mArh-3vfq_B_0_A,mArh-x0689_0_A

>  <N_constrained_atoms>  (235) 
44.0

>  <ref_url>  (235) 
nan

>  <method>  (235) 
nan

>  <comRMSD>  (235) 
1.620717

>  <N_unconstrained_atoms>  (235) 
0.0

>  <∆∆G>  (235) 
-2.685228

>  <runtime>  (235) 
33.488108

>  <generation_date>  (235) 
nan

$$$$
mArh-x0933_0_A-mArh-x0128_0_A
     RDKit          3D

 16 17  0  0  0  0  0  0  0  0999 V2000
   -6.3480   14.4050    2.2030 N   0  0  0  0  0  0  0  0  0  0  0  0
   -7.5090   15.0670    2.6690 C   0  0  0  0  0  0  0  0  0  0  0  0
   -8.4320   15.4240    1.9420 O   0  0  0  0  0  0  0  0  0  0  0  0
   -5.3140   14.9900    1.3710 C   0  0  0  0  0  0  0  0  0  0  0  0
   -7.4620   15.2560    4.1570 N   0  0  0  0  0  0  0  0  0  0  0  0
   -5.6790   14.7240    0.0000 N   0  0  0  0  0  0  0  0  0  0  0  0
   -4.0920   14.2880    1.6070 N   0  0  0  0  0  0  0  0  0  0  0  0
   -4.6370   15.1540   -0.9500 C   0  0  0  0  0  0  0  0  0  0  0  0
   -2.9930   14.8450    0.8140 C   0  0  0  0  0  0  0  0  0  0  0  0
   -8.3030   16.0290    5.0300 C   0  0  0  0  0  0  0  0  0  0  0  0
   -3.2250   14.7050   -0.5530 C   0  0  0  0  0  0  0  0  0  0  0  0
   -9.0290   17.1560    4.6950 C   0  0  0  0  0  0  0  0  0  0  0  0
   -8.4150   15.5690    6.4950 C   0  0  0  0  0  0  0  0  0  0  0  0
   -9.8210   17.8900    5.5180 N   0  0  0  0  0  0  0  0  0  0  0  0
   -9.2970   16.3550    7.4810 C   0  0  0  0  0  0  0  0  0  0  0  0
   -9.9620   17.5450    6.8030 C   0  0  0  0  0  0  0  0  0  0  0  0
  1  2  1  0
  2  3  2  0
  1  4  1  0
  2  5  1  0
  4  6  1  0
  4  7  1  0
  6  8  1  0
  7  9  1  0
  5 10  1  0
  8 11  1  0
  9 11  1  0
 10 12  2  0
 10 13  1  0
 12 14  1  0
 13 15  2  0
 14 16  2  0
 15 16  1  0
M  END
>  <%Rank>  (236) 
93.253968

>  <N_hits>  (236) 
2

>  <submitter_name>  (236) 
nan

>  <original SMILES>  (236) 
nan

>  <∆G_unbound>  (236) 
0.583461

>  <∆G_bound>  (236) 
-4.554374

>  <regarded>  (236) 
mArh-x0933_0_A,mArh-x0128_0_A

>  <ref_pdb>  (236) 
nan

>  <smiles>  (236) 
O=C(Nc1cccnc1)NC1NCCCN1

>  <submitter_email>  (236) 
nan

>  <disregarded>  (236) 


>  <LE>  (236) 
-0.321115

>  <submitter_institution>  (236) 
nan

>  <ref_mols>  (236) 
mArh-x0933_0_A,mArh-x0128_0_A

>  <N_constrained_atoms>  (236) 
16.0

>  <ref_url>  (236) 
nan

>  <method>  (236) 
nan

>  <comRMSD>  (236) 
1.392819

>  <N_unconstrained_atoms>  (236) 
0.0

>  <∆∆G>  (236) 
-5.137835

>  <runtime>  (236) 
17.115427

>  <generation_date>  (236) 
nan

$$$$
mArh-6ywk_E_2_E-mArh-3ew5_B_0_B
     RDKit          3D

 19 19  0  0  0  0  0  0  0  0999 V2000
    0.9860   20.9620   -7.7490 O   0  0  0  0  0  0  0  0  0  0  0  0
    0.0500   19.8770   -7.5440 S   0  0  0  0  0  0  0  0  0  0  0  0
    0.0530   19.1060   -6.3230 O   0  0  0  0  0  0  0  0  0  0  0  0
    0.2740   18.8250   -8.7450 O   0  0  0  0  0  0  0  0  0  0  0  0
   -1.6040   20.3640   -8.0370 C   0  0  0  0  0  0  0  0  0  0  0  0
   -2.0880   21.6940   -7.4580 C   0  0  2  0  0  0  0  0  0  0  0  0
   -3.1820   21.4920   -6.3790 C   0  0  2  0  0  0  0  0  0  0  0  0
   -2.7570   22.7040   -8.3010 N   0  0  0  0  0  0  0  0  0  0  0  0
   -4.4580   20.7660   -6.8160 C   0  0  0  0  0  0  0  0  0  0  0  0
   -3.5980   22.7770   -6.0160 O   0  0  0  0  0  0  0  0  0  0  0  0
   -3.2820   23.7940   -7.4520 C   0  0  0  0  0  0  0  0  0  0  0  0
   -3.8680   22.1590   -9.1050 C   0  0  0  0  0  0  0  0  0  0  0  0
   -5.5970   21.2160   -6.0580 O   0  0  0  0  0  0  0  0  0  0  0  0
   -4.5220   23.4480   -6.5840 C   0  0  0  0  0  0  0  0  0  0  0  0
   -5.0850   21.7470   -8.2450 C   0  0  0  0  0  0  0  0  0  0  0  0
   -5.5850   22.8290   -7.3840 N   0  0  0  0  0  0  0  0  0  0  0  0
   -6.1350   23.8840   -8.2020 C   0  0  0  0  0  0  0  0  0  0  0  0
   -7.2640   23.6640   -9.2160 C   0  0  0  0  0  0  0  0  0  0  0  0
   -7.5880   22.2960   -9.3940 O   0  0  0  0  0  0  0  0  0  0  0  0
  1  2  2  0
  2  3  2  0
  2  4  1  0
  2  5  1  0
  6  5  1  6
  6  7  1  0
  6  8  1  0
  7  9  1  0
  7 10  1  6
  8 11  1  0
  8 12  1  0
  9 13  1  0
 11 14  1  0
 12 15  1  0
 14 16  1  0
 15 16  1  0
 16 17  1  0
 17 18  1  0
 18 19  1  0
M  END
>  <%Rank>  (237) 
93.650794

>  <N_hits>  (237) 
2

>  <submitter_name>  (237) 
nan

>  <original SMILES>  (237) 
nan

>  <∆G_unbound>  (237) 
1.649944

>  <∆G_bound>  (237) 
-0.256952

>  <regarded>  (237) 
mArh-6ywk_E_2_E,mArh-3ew5_B_0_B

>  <ref_pdb>  (237) 
nan

>  <smiles>  (237) 
O=S(=O)(O)CC([C@@H](O)CO)N1CCN(CCO)CC1

>  <submitter_email>  (237) 
nan

>  <disregarded>  (237) 


>  <LE>  (237) 
-0.100363

>  <submitter_institution>  (237) 
nan

>  <ref_mols>  (237) 
mArh-6ywk_E_2_E,mArh-3ew5_B_0_B

>  <N_constrained_atoms>  (237) 
19.0

>  <ref_url>  (237) 
nan

>  <method>  (237) 
nan

>  <comRMSD>  (237) 
1.354132

>  <N_unconstrained_atoms>  (237) 
0.0

>  <∆∆G>  (237) 
-1.906896

>  <runtime>  (237) 
34.440995

>  <generation_date>  (237) 
nan

$$$$
mArh-x0524_0_A-mArh-x0159_0_B
     RDKit          3D

 29 32  0  0  0  0  0  0  0  0999 V2000
   -1.7810    7.8760   -9.1450 N   0  0  0  0  0  0  0  0  0  0  0  0
   -1.8390    8.6780   -7.9980 C   0  0  0  0  0  0  0  0  0  0  0  0
   -2.0080    7.8790   -6.7260 C   0  0  0  0  0  0  0  0  0  0  0  0
   -0.8070    7.9530  -10.1800 C   0  0  0  0  0  0  0  0  0  0  0  0
   -1.7640    9.9050   -7.9390 O   0  0  0  0  0  0  0  0  0  0  0  0
    0.0800    6.8870  -10.3800 C   0  0  0  0  0  0  0  0  0  0  0  0
   -0.6710    9.0330  -11.0150 C   0  0  0  0  0  0  0  0  0  0  0  0
    1.1630    6.8900  -11.4390 C   0  0  0  0  0  0  0  0  0  0  0  0
    0.3210    9.0400  -11.9920 C   0  0  0  0  0  0  0  0  0  0  0  0
    1.2470    7.9980  -12.2200 C   0  0  0  0  0  0  0  0  0  0  0  0
    2.2160    8.2000  -13.2290 N   0  0  0  0  0  0  0  0  0  0  0  0
    3.1000    9.1780  -12.6190 C   0  0  2  0  0  0  0  0  0  0  0  0
    2.5410   10.5690  -12.7760 C   0  0  0  0  0  0  0  0  0  0  0  0
    4.3940    9.0910  -13.1460 C   0  0  0  0  0  0  0  0  0  0  0  0
    2.8320    8.8900  -11.2230 N   0  0  0  0  0  0  0  0  0  0  0  0
    2.8120   11.3610  -14.0580 C   0  0  0  0  0  0  0  0  0  0  0  0
    4.8140    9.9370  -14.1200 C   0  0  0  0  0  0  0  0  0  0  0  0
    1.8480   10.9170  -11.7470 N   0  0  0  0  0  0  0  0  0  0  0  0
    2.0320    9.8640  -10.8660 C   0  0  0  0  0  0  0  0  0  0  0  0
    1.4460    9.8100   -9.6380 N   0  0  0  0  0  0  0  0  0  0  0  0
    3.9530   10.9870  -14.6600 C   0  0  0  0  0  0  0  0  0  0  0  0
    1.7350    8.7270   -8.6970 C   0  0  0  0  0  0  0  0  0  0  0  0
    0.7050    7.6250   -8.5610 C   0  0  0  0  0  0  0  0  0  0  0  0
    1.2640    6.3050   -8.0840 C   0  0  0  0  0  0  0  0  0  0  0  0
    2.3760    5.7100   -8.7000 C   0  0  0  0  0  0  0  0  0  0  0  0
    0.6670    5.6590   -7.0070 C   0  0  0  0  0  0  0  0  0  0  0  0
    2.8750    4.4890   -8.2340 C   0  0  0  0  0  0  0  0  0  0  0  0
    1.1660    4.4500   -6.5520 C   0  0  0  0  0  0  0  0  0  0  0  0
    2.2690    3.8590   -7.1570 C   0  0  0  0  0  0  0  0  0  0  0  0
  1  2  1  0
  2  3  1  0
  1  4  1  0
  2  5  2  0
  4  6  2  0
  4  7  1  0
  6  8  1  0
  7  9  2  0
  8 10  2  0
  9 10  1  0
 10 11  1  0
 12 11  1  6
 12 13  1  0
 12 14  1  0
 12 15  1  0
 13 16  1  0
 14 17  2  0
 13 18  2  0
 15 19  2  0
 18 19  1  0
 19 20  1  0
 16 21  2  0
 17 21  1  0
 20 22  1  0
 22 23  1  0
 23 24  1  0
 24 25  2  0
 24 26  1  0
 25 27  1  0
 26 28  2  0
 27 29  2  0
 28 29  1  0
M  END
>  <%Rank>  (238) 
94.047619

>  <N_hits>  (238) 
2

>  <submitter_name>  (238) 
nan

>  <original SMILES>  (238) 
nan

>  <∆G_unbound>  (238) 
1.348077

>  <∆G_bound>  (238) 
0.194978

>  <regarded>  (238) 
mArh-x0524_0_A,mArh-x0159_0_B

>  <ref_pdb>  (238) 
nan

>  <smiles>  (238) 
CC(=O)Nc1ccc(NC23C=CC=CC2=NC(NCCc2ccccc2)=N3)cc1

>  <submitter_email>  (238) 
nan

>  <disregarded>  (238) 


>  <LE>  (238) 
-0.039762

>  <submitter_institution>  (238) 
nan

>  <ref_mols>  (238) 
mArh-x0524_0_A,mArh-x0159_0_B

>  <N_constrained_atoms>  (238) 
29.0

>  <ref_url>  (238) 
nan

>  <method>  (238) 
nan

>  <comRMSD>  (238) 
1.488538

>  <N_unconstrained_atoms>  (238) 
0.0

>  <∆∆G>  (238) 
-1.153099

>  <runtime>  (238) 
61.388095

>  <generation_date>  (238) 
nan

$$$$
mArh-x0962_3_A-mArh-x0524_0_A
     RDKit          3D

 23 25  0  0  0  0  0  0  0  0999 V2000
    1.1990   11.3540   -7.0480 N   0  0  0  0  0  0  0  0  0  0  0  0
    0.6970   10.1950   -7.8170 C   0  0  1  0  0  0  0  0  0  0  0  0
    0.5210    8.7640   -7.1720 C   0  0  2  0  0  0  0  0  0  0  0  0
   -0.7180   10.1540   -7.9380 C   0  0  0  0  0  0  0  0  0  0  0  0
    0.0800    7.9650   -8.2830 N   0  0  0  0  0  0  0  0  0  0  0  0
   -0.5750    8.7390   -6.0820 C   0  0  0  0  0  0  0  0  0  0  0  0
   -1.2980    9.2850   -8.8120 N   0  0  0  0  0  0  0  0  0  0  0  0
   -1.7320   10.8000   -7.3090 C   0  0  0  0  0  0  0  0  0  0  0  0
   -2.6190    9.4190   -8.6800 C   0  0  0  0  0  0  0  0  0  0  0  0
   -2.9200   10.3270   -7.7780 N   0  0  0  0  0  0  0  0  0  0  0  0
    1.0150    8.1170   -9.2620 C   0  0  0  0  0  0  0  0  0  0  0  0
    2.2390    7.4950   -9.1480 C   0  0  0  0  0  0  0  0  0  0  0  0
    0.7610    8.9160  -10.3810 C   0  0  0  0  0  0  0  0  0  0  0  0
    3.2070    7.6520  -10.1170 C   0  0  0  0  0  0  0  0  0  0  0  0
    1.7340    9.0780  -11.3630 C   0  0  0  0  0  0  0  0  0  0  0  0
    2.9750    8.4400  -11.2310 C   0  0  0  0  0  0  0  0  0  0  0  0
    3.9510    8.5980  -12.2020 N   0  0  0  0  0  0  0  0  0  0  0  0
    4.1460    9.5290  -13.2140 C   0  0  0  0  0  0  0  0  0  0  0  0
    3.3070   10.6460  -13.3130 C   0  0  0  0  0  0  0  0  0  0  0  0
    5.1700    9.3750  -14.1410 C   0  0  0  0  0  0  0  0  0  0  0  0
    3.4940   11.5860  -14.3240 C   0  0  0  0  0  0  0  0  0  0  0  0
    5.3610   10.3100  -15.1520 C   0  0  0  0  0  0  0  0  0  0  0  0
    4.5220   11.4170  -15.2470 C   0  0  0  0  0  0  0  0  0  0  0  0
  2  1  1  1
  2  3  1  0
  2  4  1  0
  3  5  1  0
  3  6  1  1
  4  7  1  0
  4  8  2  0
  7  9  1  0
  8 10  1  0
  9 10  2  0
  5 11  1  0
 11 12  2  0
 11 13  1  0
 12 14  1  0
 13 15  2  0
 14 16  2  0
 15 16  1  0
 16 17  1  0
 17 18  1  0
 18 19  2  0
 18 20  1  0
 19 21  1  0
 20 22  2  0
 21 23  2  0
 22 23  1  0
M  END
>  <%Rank>  (239) 
94.444444

>  <N_hits>  (239) 
2

>  <submitter_name>  (239) 
nan

>  <original SMILES>  (239) 
nan

>  <∆G_unbound>  (239) 
0.102042

>  <∆G_bound>  (239) 
-3.387875

>  <regarded>  (239) 
mArh-x0962_3_A,mArh-x0524_0_A

>  <ref_pdb>  (239) 
nan

>  <smiles>  (239) 
CC(Nc1ccc(Nc2ccccc2)cc1)C(N)c1cnc[nH]1

>  <submitter_email>  (239) 
nan

>  <disregarded>  (239) 


>  <LE>  (239) 
-0.151736

>  <submitter_institution>  (239) 
nan

>  <ref_mols>  (239) 
mArh-x0962_3_A,mArh-x0524_0_A

>  <N_constrained_atoms>  (239) 
23.0

>  <ref_url>  (239) 
nan

>  <method>  (239) 
nan

>  <comRMSD>  (239) 
1.467195

>  <N_unconstrained_atoms>  (239) 
0.0

>  <∆∆G>  (239) 
-3.489917

>  <runtime>  (239) 
36.520792

>  <generation_date>  (239) 
nan

$$$$
mArh-x0282_0_A-mArh-x0689_0_A
     RDKit          3D

 16 17  0  0  0  0  0  0  0  0999 V2000
   -7.6120   13.3940    0.8050 C   0  0  0  0  0  0  0  0  0  0  0  0
   -8.8000   13.9700    0.2690 O   0  0  0  0  0  0  0  0  0  0  0  0
   -6.5500   14.4800    0.9000 C   0  0  0  0  0  0  0  0  0  0  0  0
   -5.3850   14.1400    1.8120 C   0  0  0  0  0  0  0  0  0  0  0  0
   -6.0950   14.8980   -0.5130 C   0  0  0  0  0  0  0  0  0  0  0  0
   -4.2560   13.3840    1.0960 C   0  0  0  0  0  0  0  0  0  0  0  0
   -4.5890   15.0530   -0.7320 C   0  0  0  0  0  0  0  0  0  0  0  0
   -3.7950   13.9410   -0.2130 N   0  0  0  0  0  0  0  0  0  0  0  0
   -2.3710   14.3140   -0.2440 C   0  0  2  0  0  0  0  0  0  0  0  0
   -1.4680   13.8000   -1.2650 N   0  0  0  0  0  0  0  0  0  0  0  0
   -1.8340   14.2250    1.1240 N   0  0  0  0  0  0  0  0  0  0  0  0
   -2.8270   14.8840    2.0190 N   0  0  0  0  0  0  0  0  0  0  0  0
   -0.1700   14.2200   -1.2270 C   0  0  0  0  0  0  0  0  0  0  0  0
   -0.5270   14.9270    1.1140 C   0  0  0  0  0  0  0  0  0  0  0  0
   -3.6740   15.8960    1.3920 C   0  0  0  0  0  0  0  0  0  0  0  0
    0.3250   14.7630   -0.1200 C   0  0  0  0  0  0  0  0  0  0  0  0
  1  2  1  0
  1  3  1  0
  3  4  1  0
  3  5  1  0
  4  6  1  0
  5  7  1  0
  6  8  1  0
  7  8  1  0
  9  8  1  1
  9 10  1  0
  9 11  1  0
 11 12  1  0
 10 13  1  0
 11 14  1  0
 12 15  1  0
 13 16  2  0
 14 16  1  0
M  END
>  <%Rank>  (240) 
94.84127

>  <N_hits>  (240) 
2

>  <submitter_name>  (240) 
nan

>  <original SMILES>  (240) 
nan

>  <∆G_unbound>  (240) 
0.253647

>  <∆G_bound>  (240) 
-2.924823

>  <regarded>  (240) 
mArh-x0282_0_A,mArh-x0689_0_A

>  <ref_pdb>  (240) 
nan

>  <smiles>  (240) 
CNN1CC=CNC1N1CCC(CO)CC1

>  <submitter_email>  (240) 
nan

>  <disregarded>  (240) 


>  <LE>  (240) 
-0.198654

>  <submitter_institution>  (240) 
nan

>  <ref_mols>  (240) 
mArh-x0282_0_A,mArh-x0689_0_A

>  <N_constrained_atoms>  (240) 
16.0

>  <ref_url>  (240) 
nan

>  <method>  (240) 
nan

>  <comRMSD>  (240) 
1.375461

>  <N_unconstrained_atoms>  (240) 
0.0

>  <∆∆G>  (240) 
-3.17847

>  <runtime>  (240) 
25.885204

>  <generation_date>  (240) 
nan

$$$$
mArh-x0689_0_A-mArh-x0626_0_A
     RDKit          3D

 12 12  0  0  0  0  0  0  0  0999 V2000
   -3.7280   14.2960    1.3540 N   0  0  0  0  0  0  0  0  0  0  0  0
   -4.6670   15.3620    1.0950 C   0  0  0  0  0  0  0  0  0  0  0  0
   -5.9860   14.8040    0.5510 C   0  0  0  0  0  0  0  0  0  0  0  0
   -2.4470   14.4400    0.8540 C   0  0  0  0  0  0  0  0  0  0  0  0
   -2.2800   14.5090   -0.4690 N   0  0  0  0  0  0  0  0  0  0  0  0
   -1.4590   14.4900    1.7440 N   0  0  0  0  0  0  0  0  0  0  0  0
   -6.1780   14.6890   -0.6630 O   0  0  0  0  0  0  0  0  0  0  0  0
   -7.0400   14.4120    1.5710 C   0  0  0  0  0  0  0  0  0  0  0  0
   -1.0280   14.6330   -0.9170 C   0  0  0  0  0  0  0  0  0  0  0  0
   -0.2020   14.6140    1.2910 C   0  0  0  0  0  0  0  0  0  0  0  0
   -8.4310   14.6510    1.0680 C   0  0  0  0  0  0  0  0  0  0  0  0
    0.1930   14.7000   -0.0270 C   0  0  0  0  0  0  0  0  0  0  0  0
  1  2  1  0
  2  3  1  0
  1  4  1  0
  4  5  2  0
  4  6  1  0
  3  7  2  0
  3  8  1  0
  5  9  1  0
  6 10  2  0
  8 11  1  0
  9 12  2  0
 10 12  1  0
M  END
>  <%Rank>  (241) 
95.238095

>  <N_hits>  (241) 
2

>  <submitter_name>  (241) 
nan

>  <original SMILES>  (241) 
nan

>  <∆G_unbound>  (241) 
0.643998

>  <∆G_bound>  (241) 
-5.435797

>  <regarded>  (241) 
mArh-x0689_0_A,mArh-x0626_0_A

>  <ref_pdb>  (241) 
nan

>  <smiles>  (241) 
CCC(=O)CNc1ncccn1

>  <submitter_email>  (241) 
nan

>  <disregarded>  (241) 


>  <LE>  (241) 
-0.50665

>  <submitter_institution>  (241) 
nan

>  <ref_mols>  (241) 
mArh-x0689_0_A,mArh-x0626_0_A

>  <N_constrained_atoms>  (241) 
12.0

>  <ref_url>  (241) 
nan

>  <method>  (241) 
nan

>  <comRMSD>  (241) 
1.470753

>  <N_unconstrained_atoms>  (241) 
0.0

>  <∆∆G>  (241) 
-6.079795

>  <runtime>  (241) 
18.590725

>  <generation_date>  (241) 
nan

$$$$
mArh-x0724_0_A-mArh-4jca_0_A
     RDKit          3D

 30 31  0  0  0  0  0  0  0  0999 V2000
   -8.2590   13.7940    4.4720 N   0  0  0  0  0  0  0  0  0  0  0  0
   -8.6570   13.9510    5.8610 C   0  0  0  0  0  0  0  0  0  0  0  0
   -8.4490   15.0310    3.7340 C   0  0  0  0  0  0  0  0  0  0  0  0
   -7.7930   14.8870    2.4120 C   0  0  0  0  0  0  0  0  0  0  0  0
   -6.4420   14.8800    2.1300 C   0  0  0  0  0  0  0  0  0  0  0  0
   -8.3960   14.7310    1.1510 C   0  0  0  0  0  0  0  0  0  0  0  0
   -7.5130   14.6410    0.1580 N   0  0  0  0  0  0  0  0  0  0  0  0
   -6.3030   14.7390    0.7750 N   0  0  0  0  0  0  0  0  0  0  0  0
   -5.1070   14.6900    0.0350 C   0  0  0  0  0  0  0  0  0  0  0  0
   -3.8600   14.4910    0.6520 C   0  0  0  0  0  0  0  0  0  0  0  0
   -5.1580   14.8390   -1.3520 C   0  0  0  0  0  0  0  0  0  0  0  0
   -2.6970   14.4240   -0.1110 C   0  0  0  0  0  0  0  0  0  0  0  0
   -4.0010   14.7720   -2.1110 C   0  0  0  0  0  0  0  0  0  0  0  0
   -2.7830   14.5560   -1.4890 C   0  0  0  0  0  0  0  0  0  0  0  0
   -1.5720   14.4490   -2.3490 C   0  0  0  0  0  0  0  0  0  0  0  0
   -1.9390   13.4440   -3.4310 C   0  0  0  0  0  0  0  0  0  0  0  0
   -2.2530   12.0480   -2.8600 C   0  0  0  0  0  0  0  0  0  0  0  0
   -1.4100   11.2140   -3.6710 N   0  0  0  0  0  0  0  0  0  0  0  0
   -0.3570   10.6730   -3.2610 C   0  0  0  0  0  0  0  0  0  0  0  0
    0.5330    9.9560   -4.2470 C   0  0  0  0  0  0  0  0  0  0  0  0
    0.1610   10.6970   -2.0040 O   0  0  0  0  0  0  0  0  0  0  0  0
   -0.0190    9.0630   -5.3860 C   0  0  0  0  0  0  0  0  0  0  0  0
    1.3350   11.0080   -4.9710 C   0  0  0  0  0  0  0  0  0  0  0  0
    1.4230    9.3160   -3.4080 O   0  0  0  0  0  0  0  0  0  0  0  0
   -0.8030    7.8310   -5.2500 C   0  0  0  0  0  0  0  0  0  0  0  0
    1.4140   10.5010   -6.4020 C   0  0  0  0  0  0  0  0  0  0  0  0
   -0.4540    6.7070   -5.5870 O   0  0  0  0  0  0  0  0  0  0  0  0
   -2.0040    8.0510   -4.6990 O   0  0  0  0  0  0  0  0  0  0  0  0
    1.1400    9.1190   -6.6270 O   0  0  0  0  0  0  0  0  0  0  0  0
    1.7360   11.3340   -7.3640 O   0  0  0  0  0  0  0  0  0  0  0  0
  1  2  1  0
  1  3  1  0
  3  4  1  0
  4  5  2  0
  4  6  1  0
  6  7  2  0
  5  8  1  0
  7  8  1  0
  8  9  1  0
  9 10  2  0
  9 11  1  0
 10 12  1  0
 11 13  2  0
 12 14  2  0
 13 14  1  0
 14 15  1  0
 15 16  1  0
 16 17  1  0
 17 18  1  0
 18 19  2  3
 19 20  1  0
 19 21  1  0
 20 22  1  0
 20 23  1  0
 20 24  1  0
 22 25  1  0
 23 26  1  0
 25 27  2  0
 25 28  1  0
 26 29  2  0
 26 30  1  0
M  END
>  <%Rank>  (242) 
95.634921

>  <N_hits>  (242) 
2

>  <submitter_name>  (242) 
nan

>  <original SMILES>  (242) 
nan

>  <∆G_unbound>  (242) 
3.544247

>  <∆G_bound>  (242) 
3.284739

>  <regarded>  (242) 
mArh-x0724_0_A,mArh-4jca_0_A

>  <ref_pdb>  (242) 
nan

>  <smiles>  (242) 
CNCc1cnn(-c2ccc(CCCN=C(O)C(O)(CC(=O)O)CC(=O)O)cc2)c1

>  <submitter_email>  (242) 
nan

>  <disregarded>  (242) 


>  <LE>  (242) 
-0.00865

>  <submitter_institution>  (242) 
nan

>  <ref_mols>  (242) 
mArh-x0724_0_A,mArh-4jca_0_A

>  <N_constrained_atoms>  (242) 
27.0

>  <ref_url>  (242) 
nan

>  <method>  (242) 
nan

>  <comRMSD>  (242) 
1.539401

>  <N_unconstrained_atoms>  (242) 
3.0

>  <∆∆G>  (242) 
-0.259508

>  <runtime>  (242) 
46.391872

>  <generation_date>  (242) 
nan

$$$$
mArh-x0766_0_A-mArh-x0895_0_A
     RDKit          3D

 20 22  0  0  0  0  0  0  0  0999 V2000
    0.4080   12.2390   -2.0730 C   0  0  0  0  0  0  0  0  0  0  0  0
    0.1980   11.0350   -2.7740 O   0  0  0  0  0  0  0  0  0  0  0  0
    0.3040   12.3460   -0.8910 O   0  0  0  0  0  0  0  0  0  0  0  0
    0.7970   13.4460   -2.8220 C   0  0  1  0  0  0  0  0  0  0  0  0
    1.9200   13.2570   -3.8250 C   0  0  0  0  0  0  0  0  0  0  0  0
   -0.3130   14.0090   -3.6640 C   0  0  2  0  0  0  0  0  0  0  0  0
    1.7910   14.4900   -4.6860 C   0  0  0  0  0  0  0  0  0  0  0  0
    0.4790   15.1380   -4.3190 C   0  0  0  0  0  0  0  0  0  0  0  0
   -1.4930   14.5560   -3.2220 C   0  0  0  0  0  0  0  0  0  0  0  0
   -2.4620   14.4160   -2.2130 C   0  0  0  0  0  0  0  0  0  0  0  0
   -1.8610   15.5890   -4.0310 C   0  0  0  0  0  0  0  0  0  0  0  0
   -2.5930   13.6290   -1.1850 N   0  0  0  0  0  0  0  0  0  0  0  0
   -2.9880   16.1570   -3.6850 C   0  0  0  0  0  0  0  0  0  0  0  0
   -3.7360   15.5170   -2.3380 S   0  0  0  0  0  0  0  0  0  0  0  0
   -3.2800   14.1110   -0.2120 C   0  0  0  0  0  0  0  0  0  0  0  0
   -3.9680   15.3000   -0.0570 N   0  0  0  0  0  0  0  0  0  0  0  0
   -3.4170   13.5480    0.9370 N   0  0  0  0  0  0  0  0  0  0  0  0
   -3.7440   15.6830    1.3330 C   0  0  0  0  0  0  0  0  0  0  0  0
   -2.8030   14.5230    1.6170 C   0  0  0  0  0  0  0  0  0  0  0  0
   -1.7680   14.4630    2.2340 O   0  0  0  0  0  0  0  0  0  0  0  0
  1  2  1  0
  1  3  2  0
  4  1  1  6
  4  5  1  0
  4  6  1  0
  5  7  1  0
  6  8  1  0
  7  8  1  0
  6  9  1  1
  9 10  2  0
  9 11  1  0
 10 12  1  0
 11 13  2  0
 10 14  1  0
 13 14  1  0
 12 15  2  3
 15 16  1  0
 15 17  1  0
 16 18  1  0
 17 19  1  0
 18 19  1  0
 19 20  2  0
M  END
>  <%Rank>  (243) 
96.031746

>  <N_hits>  (243) 
2

>  <submitter_name>  (243) 
nan

>  <original SMILES>  (243) 
nan

>  <∆G_unbound>  (243) 
1.580717

>  <∆G_bound>  (243) 
-1.506625

>  <regarded>  (243) 
mArh-x0766_0_A,mArh-x0895_0_A

>  <ref_pdb>  (243) 
nan

>  <smiles>  (243) 
O=C1CNC(=Nc2sccc2C2CCCC2C(=O)O)N1

>  <submitter_email>  (243) 
nan

>  <disregarded>  (243) 


>  <LE>  (243) 
-0.154367

>  <submitter_institution>  (243) 
nan

>  <ref_mols>  (243) 
mArh-x0766_0_A,mArh-x0895_0_A

>  <N_constrained_atoms>  (243) 
20.0

>  <ref_url>  (243) 
nan

>  <method>  (243) 
nan

>  <comRMSD>  (243) 
1.581342

>  <N_unconstrained_atoms>  (243) 
0.0

>  <∆∆G>  (243) 
-3.087342

>  <runtime>  (243) 
20.841144

>  <generation_date>  (243) 
nan

$$$$
mArh-x0158_0_B-mArh-x0918_3_A
     RDKit          3D

 27 28  0  0  0  0  0  0  0  0999 V2000
   17.4370   17.9360   11.3280 C   0  0  0  0  0  0  0  0  0  0  0  0
   16.0720   17.6360   11.9150 C   0  0  0  0  0  0  0  0  0  0  0  0
   15.8640   16.2190   11.8370 O   0  0  0  0  0  0  0  0  0  0  0  0
   15.9560   15.5240   13.0000 C   0  0  0  0  0  0  0  0  0  0  0  0
   16.0930   16.0250   14.1110 O   0  0  0  0  0  0  0  0  0  0  0  0
   15.8640   14.0130   12.7970 C   0  0  0  0  0  0  0  0  0  0  0  0
   14.6240   13.4160   13.3410 N   0  0  0  0  0  0  0  0  0  0  0  0
   14.5420   11.9850   13.1240 C   0  0  0  0  0  0  0  0  0  0  0  0
   13.4400   14.1060   12.8510 C   0  0  0  0  0  0  0  0  0  0  0  0
   13.5860   11.3410   14.1000 C   0  0  0  0  0  0  0  0  0  0  0  0
   12.1390   13.7300   13.5320 C   0  0  0  0  0  0  0  0  0  0  0  0
   11.9370   11.9780   13.8800 S   0  0  0  0  0  0  0  0  0  0  0  0
   11.3090   11.8100   15.1750 O   0  0  0  0  0  0  0  0  0  0  0  0
   11.4170   11.2600   12.6470 N   0  0  0  0  0  0  0  0  0  0  0  0
   12.0420    9.9380   12.5640 C   0  0  0  0  0  0  0  0  0  0  0  0
   13.3880   10.0680   11.8240 C   0  0  0  0  0  0  0  0  0  0  0  0
   14.4430    9.0670   12.3120 C   0  0  0  0  0  0  0  0  0  0  0  0
   15.8460    9.2760   11.7340 C   0  0  0  0  0  0  0  0  0  0  0  0
   16.2840    8.1100   10.8450 C   0  0  0  0  0  0  0  0  0  0  0  0
   15.1340    7.4520   10.0900 C   0  0  0  0  0  0  0  0  0  0  0  0
   15.5770    6.4490    9.1240 N   0  0  0  0  0  0  0  0  0  0  0  0
   15.3670    5.1050    9.4490 C   0  0  0  0  0  0  0  0  0  0  0  0
   15.5400    4.1050    8.4840 C   0  0  0  0  0  0  0  0  0  0  0  0
   14.9820    4.6890   10.7150 C   0  0  0  0  0  0  0  0  0  0  0  0
   15.3200    2.7780    8.8190 C   0  0  0  0  0  0  0  0  0  0  0  0
   14.7870    3.3410   10.9640 C   0  0  0  0  0  0  0  0  0  0  0  0
   14.9440    2.3700   10.0450 N   0  0  0  0  0  0  0  0  0  0  0  0
  1  2  1  0
  2  3  1  0
  3  4  1  0
  4  5  2  0
  4  6  1  0
  6  7  1  0
  7  8  1  0
  7  9  1  0
  8 10  1  0
  9 11  1  0
 12 10  1  0
 11 12  1  0
 12 13  2  0
 12 14  2  0
 14 15  1  0
 15 16  1  0
 16 17  1  0
 17 18  1  0
 18 19  1  0
 19 20  1  0
 20 21  1  0
 21 22  1  0
 22 23  2  0
 22 24  1  0
 23 25  1  0
 24 26  2  0
 25 27  2  0
 26 27  1  0
M  END
>  <%Rank>  (244) 
96.428571

>  <N_hits>  (244) 
2

>  <submitter_name>  (244) 
nan

>  <original SMILES>  (244) 
nan

>  <∆G_unbound>  (244) 
0.056104

>  <∆G_bound>  (244) 
-4.969459

>  <regarded>  (244) 
mArh-x0158_0_B,mArh-x0918_3_A

>  <ref_pdb>  (244) 
nan

>  <smiles>  (244) 
CCOC(=O)CN1CCS(=O)(=NCCCCCCNc2ccncc2)CC1

>  <submitter_email>  (244) 
nan

>  <disregarded>  (244) 


>  <LE>  (244) 
-0.186132

>  <submitter_institution>  (244) 
nan

>  <ref_mols>  (244) 
mArh-x0158_0_B,mArh-x0918_3_A

>  <N_constrained_atoms>  (244) 
21.0

>  <ref_url>  (244) 
nan

>  <method>  (244) 
nan

>  <comRMSD>  (244) 
1.545012

>  <N_unconstrained_atoms>  (244) 
6.0

>  <∆∆G>  (244) 
-5.025563

>  <runtime>  (244) 
67.271806

>  <generation_date>  (244) 
nan

$$$$
mArh-3vfq_B_0_A-mArh-6ywk_E_2_E
     RDKit          3D

 49 54  0  0  0  0  0  0  0  0999 V2000
   -4.4110   16.3070   -6.9650 P   0  0  2  0  0  0  0  0  0  0  0  0
   -4.1730   15.3000   -5.7400 O   0  0  0  0  0  0  0  0  0  0  0  0
   -3.2260   14.2620   -5.9540 C   0  0  0  0  0  0  0  0  0  0  0  0
   -5.7680   16.8860   -7.1160 O   0  0  0  0  0  0  0  0  0  0  0  0
   -4.0730   15.2940   -8.1560 O   0  0  0  0  0  0  0  0  0  0  0  0
   -3.1230   17.2900   -6.9800 O   0  0  0  0  0  0  0  0  0  0  0  0
   -2.7360   18.8430   -6.6200 P   0  0  1  0  0  0  0  0  0  0  0  0
   -2.2330   19.1060   -5.2250 O   0  0  0  0  0  0  0  0  0  0  0  0
   -1.4960   18.6850   -7.5900 O   0  0  0  0  0  0  0  0  0  0  0  0
   -3.7290   20.0800   -7.2500 O   0  0  0  0  0  0  0  0  0  0  0  0
   -3.7180   13.0630   -5.1550 C   0  0  1  0  0  0  0  0  0  0  0  0
   -5.1810   20.4660   -7.1740 C   0  0  0  0  0  0  0  0  0  0  0  0
   -4.0790   13.5180   -3.8310 O   0  0  0  0  0  0  0  0  0  0  0  0
   -4.9200   12.3060   -5.7200 C   0  0  1  0  0  0  0  0  0  0  0  0
   -4.7460   10.8970   -5.7790 O   0  0  0  0  0  0  0  0  0  0  0  0
   -6.0600   12.5900   -4.7150 C   0  0  2  0  0  0  0  0  0  0  0  0
   -5.4980   13.6970   -3.8350 C   0  0  1  0  0  0  0  0  0  0  0  0
   -5.7140   21.3530   -8.4170 C   0  0  1  0  0  0  0  0  0  0  0  0
   -6.3900   11.4030   -3.9920 O   0  0  0  0  0  0  0  0  0  0  0  0
   -6.8280   22.0420   -8.6500 C   0  0  1  0  0  0  0  0  0  0  0  0
   -4.8200   22.3580   -8.9910 O   0  0  0  0  0  0  0  0  0  0  0  0
   -6.0100   13.7220   -2.4780 N   0  0  0  0  0  0  0  0  0  0  0  0
   -6.6570   23.3670   -8.0870 N   0  0  0  0  0  0  0  0  0  0  0  0
   -5.4490   22.8100  -10.2110 C   0  0  2  0  0  0  0  0  0  0  0  0
   -6.9120   22.4470   -9.9980 C   0  0  2  0  0  0  0  0  0  0  0  0
   -5.4250   14.3000   -1.3830 C   0  0  0  0  0  0  0  0  0  0  0  0
   -7.1900   13.1630   -2.0570 C   0  0  0  0  0  0  0  0  0  0  0  0
   -4.8520   22.2140  -11.3540 O   0  0  0  0  0  0  0  0  0  0  0  0
   -7.7610   23.5970  -10.0430 O   0  0  0  0  0  0  0  0  0  0  0  0
   -7.1500   24.3780   -9.0080 C   0  0  0  0  0  0  0  0  0  0  0  0
   -6.3030   14.0630   -0.3380 C   0  0  0  0  0  0  0  0  0  0  0  0
   -4.2580   14.9590   -1.3210 N   0  0  0  0  0  0  0  0  0  0  0  0
   -7.4030   13.3490   -0.7690 N   0  0  0  0  0  0  0  0  0  0  0  0
   -5.4920   23.4280   -7.3070 N   0  0  0  0  0  0  0  0  0  0  0  0
   -5.9310   14.5730    0.9130 C   0  0  0  0  0  0  0  0  0  0  0  0
   -4.0170   15.3890   -0.0780 C   0  0  0  0  0  0  0  0  0  0  0  0
   -4.7900   24.6220   -7.1240 C   0  0  0  0  0  0  0  0  0  0  0  0
   -4.4990   22.4210   -7.6860 C   0  0  0  0  0  0  0  0  0  0  0  0
   -6.6650   14.4390    2.0350 N   0  0  0  0  0  0  0  0  0  0  0  0
   -4.7670   15.2450    1.0210 N   0  0  0  0  0  0  0  0  0  0  0  0
   -3.3840   24.1410   -6.7390 C   0  0  0  0  0  0  0  0  0  0  0  0
   -3.4410   23.0300   -8.6700 C   0  0  0  0  0  0  0  0  0  0  0  0
   -2.5070   23.7050   -7.8560 N   0  0  0  0  0  0  0  0  0  0  0  0
   -1.2850   22.8680   -7.6520 C   0  0  0  0  0  0  0  0  0  0  0  0
   -1.3820   21.3950   -7.2360 C   0  0  0  0  0  0  0  0  0  0  0  0
    0.1260   20.4150   -7.4810 S   0  0  0  0  0  0  0  0  0  0  0  0
    1.3390   21.2190   -7.5880 O   0  0  0  0  0  0  0  0  0  0  0  0
    0.1180   19.3270   -6.5280 O   0  0  0  0  0  0  0  0  0  0  0  0
   -0.1320   19.7220   -8.9000 O   0  0  0  0  0  0  0  0  0  0  0  0
  1  2  1  0
  2  3  1  0
  1  4  2  0
  1  5  1  6
  1  6  1  0
  6  7  1  0
  7  8  2  0
  7  9  1  6
  7 10  1  0
 11  3  1  6
 10 12  1  0
 11 13  1  0
 11 14  1  0
 14 15  1  1
 14 16  1  0
 13 17  1  0
 16 17  1  0
 18 12  1  1
 16 19  1  1
 18 20  1  0
 18 21  1  0
 17 22  1  1
 20 23  1  1
 21 24  1  0
 20 25  1  0
 24 25  1  0
 22 26  1  0
 22 27  1  0
 24 28  1  6
 25 29  1  1
 23 30  1  0
 29 30  1  0
 26 31  2  0
 26 32  1  0
 27 33  2  0
 31 33  1  0
 23 34  1  0
 31 35  1  0
 32 36  2  0
 34 37  1  0
 34 38  1  0
 35 39  1  0
 35 40  2  0
 36 40  1  0
 37 41  1  0
 38 42  1  0
 41 43  1  0
 42 43  1  0
 43 44  1  0
 44 45  1  0
 45 46  1  0
 46 47  2  0
 46 48  2  0
 46 49  1  0
M  END
>  <%Rank>  (245) 
96.825397

>  <N_hits>  (245) 
2

>  <submitter_name>  (245) 
nan

>  <original SMILES>  (245) 
nan

>  <∆G_unbound>  (245) 
9.34834

>  <∆G_bound>  (245) 
9.949218

>  <regarded>  (245) 
mArh-3vfq_B_0_A,mArh-6ywk_E_2_E

>  <ref_pdb>  (245) 
nan

>  <smiles>  (245) 
Nc1ncnc2c1ncn2C1OC(CO[P@](=O)(O)O[P@@](=O)(O)OCC2OC(O)C3OCN(N4CCN(CCS(=O)(=O)O)CC4)C23)C(O)C1O

>  <submitter_email>  (245) 
nan

>  <disregarded>  (245) 


>  <LE>  (245) 
0.012263

>  <submitter_institution>  (245) 
nan

>  <ref_mols>  (245) 
mArh-3vfq_B_0_A,mArh-6ywk_E_2_E

>  <N_constrained_atoms>  (245) 
49.0

>  <ref_url>  (245) 
nan

>  <method>  (245) 
nan

>  <comRMSD>  (245) 
1.935937

>  <N_unconstrained_atoms>  (245) 
0.0

>  <∆∆G>  (245) 
0.600878

>  <runtime>  (245) 
171.252928

>  <generation_date>  (245) 
nan

$$$$
mArh-4jca_0_A-mArh-x0849_0_A
     RDKit          3D

 26 27  0  0  0  0  0  0  0  0999 V2000
   -0.7460    8.4490   -5.2010 C   0  0  0  0  0  0  0  0  0  0  0  0
   -0.9810    9.8140   -4.6590 C   0  0  0  0  0  0  0  0  0  0  0  0
    0.2080   10.4070   -3.8700 C   0  0  0  0  0  0  0  0  0  0  0  0
   -1.5510    7.5490   -5.3550 O   0  0  0  0  0  0  0  0  0  0  0  0
    0.5130    8.2890   -5.5110 O   0  0  0  0  0  0  0  0  0  0  0  0
    0.9260   11.5430   -4.6010 C   0  0  0  0  0  0  0  0  0  0  0  0
   -0.3390   10.9260   -2.5120 C   0  0  0  0  0  0  0  0  0  0  0  0
    1.2040    9.4390   -3.6290 O   0  0  0  0  0  0  0  0  0  0  0  0
    1.4790   11.0300   -5.9270 C   0  0  0  0  0  0  0  0  0  0  0  0
   -1.5040   10.7580   -2.1920 O   0  0  0  0  0  0  0  0  0  0  0  0
    0.5790   11.5470   -1.6930 O   0  0  0  0  0  0  0  0  0  0  0  0
    1.0510    9.7790   -6.4220 O   0  0  0  0  0  0  0  0  0  0  0  0
    2.3600   11.8410   -6.5350 O   0  0  0  0  0  0  0  0  0  0  0  0
    1.1810   12.7690   -2.1910 C   0  0  0  0  0  0  0  0  0  0  0  0
    0.4340   14.0190   -1.6910 C   0  0  0  0  0  0  0  0  0  0  0  0
    0.2030   14.0820   -0.2000 C   0  0  0  0  0  0  0  0  0  0  0  0
   -0.2480   14.2070    1.1580 C   0  0  0  0  0  0  0  0  0  0  0  0
   -1.0280   14.4230   -0.8490 C   0  0  0  0  0  0  0  0  0  0  0  0
   -2.2920   14.7760   -0.3470 C   0  0  0  0  0  0  0  0  0  0  0  0
   -1.3980   14.5290    1.7890 N   0  0  0  0  0  0  0  0  0  0  0  0
   -2.4330   14.8200    1.1130 C   0  0  0  0  0  0  0  0  0  0  0  0
   -3.4460   15.0940   -1.0900 C   0  0  0  0  0  0  0  0  0  0  0  0
   -3.4800   15.0910   -2.9920 Br  0  0  0  0  0  0  0  0  0  0  0  0
   -3.5580   15.1380    1.6970 N   0  0  0  0  0  0  0  0  0  0  0  0
   -4.6270   15.4250   -0.4390 C   0  0  0  0  0  0  0  0  0  0  0  0
   -4.6200   15.4270    0.9400 C   0  0  0  0  0  0  0  0  0  0  0  0
  1  2  1  0
  2  3  1  0
  1  4  2  0
  1  5  1  0
  3  6  1  0
  3  7  1  0
  3  8  1  0
  6  9  1  0
  7 10  2  0
  7 11  1  0
  9 12  2  0
  9 13  1  0
 11 14  1  0
 14 15  1  0
 15 16  1  0
 16 17  2  0
 16 18  1  0
 18 19  2  0
 17 20  1  0
 19 21  1  0
 20 21  2  0
 19 22  1  0
 22 23  1  0
 21 24  1  0
 22 25  2  0
 24 26  2  0
 25 26  1  0
M  END
>  <%Rank>  (246) 
97.222222

>  <N_hits>  (246) 
2

>  <submitter_name>  (246) 
nan

>  <original SMILES>  (246) 
nan

>  <∆G_unbound>  (246) 
2.641969

>  <∆G_bound>  (246) 
0.66149

>  <regarded>  (246) 
mArh-4jca_0_A,mArh-x0849_0_A

>  <ref_pdb>  (246) 
nan

>  <smiles>  (246) 
O=C(O)CC(O)(CC(=O)O)C(=O)OCCc1cnc2nccc(Br)c2c1

>  <submitter_email>  (246) 
nan

>  <disregarded>  (246) 


>  <LE>  (246) 
-0.076172

>  <submitter_institution>  (246) 
nan

>  <ref_mols>  (246) 
mArh-4jca_0_A,mArh-x0849_0_A

>  <N_constrained_atoms>  (246) 
24.0

>  <ref_url>  (246) 
nan

>  <method>  (246) 
nan

>  <comRMSD>  (246) 
1.82161

>  <N_unconstrained_atoms>  (246) 
2.0

>  <∆∆G>  (246) 
-1.980479

>  <runtime>  (246) 
40.41013

>  <generation_date>  (246) 
nan

$$$$
mArh-6vxs_B_0_B-mArh-x0598_0_A
     RDKit          3D

 30 31  0  0  0  0  0  0  0  0999 V2000
    9.2670   33.7320    9.0670 N   0  0  0  0  0  0  0  0  0  0  0  0
    9.3900   32.6180    8.1490 C   0  0  0  0  0  0  0  0  0  0  0  0
   10.7150   31.8960    8.2670 C   0  0  0  0  0  0  0  0  0  0  0  0
    8.3440   34.8040    8.6760 C   0  0  0  0  0  0  0  0  0  0  0  0
    8.0630   35.7200    9.8740 C   0  0  0  0  0  0  0  0  0  0  0  0
    7.1670   34.3950    8.0370 C   0  0  0  0  0  0  0  0  0  0  0  0
   10.7030   30.4830    9.3530 S   0  0  2  0  0  0  0  0  0  0  0  0
    7.3250   36.9810    9.4640 C   0  0  0  0  0  0  0  0  0  0  0  0
    6.1630   35.5360    7.7410 C   0  0  0  0  0  0  0  0  0  0  0  0
   12.0370   30.0310    9.6140 O   0  0  0  0  0  0  0  0  0  0  0  0
    9.5390   29.5340    9.1810 N   0  0  0  0  0  0  0  0  0  0  0  0
   10.0520   31.1530   10.6630 O   0  0  0  0  0  0  0  0  0  0  0  0
    6.0170   36.6540    8.7760 C   0  0  0  0  0  0  0  0  0  0  0  0
    9.8860   28.1860    9.6780 C   0  0  0  0  0  0  0  0  0  0  0  0
   10.6940   28.2860   10.9680 C   0  0  0  0  0  0  0  0  0  0  0  0
   10.6630   26.9440   11.6930 C   0  0  0  0  0  0  0  0  0  0  0  0
   11.4690   26.9000   12.9760 C   0  0  0  0  0  0  0  0  0  0  0  0
   10.6250   26.4590   14.1320 C   0  0  0  0  0  0  0  0  0  0  0  0
   10.3360   25.0450   13.9430 N   0  0  0  0  0  0  0  0  0  0  0  0
   10.8990   24.2070   15.0720 S   0  0  1  0  0  0  0  0  0  0  0  0
    9.6110   24.2290   16.1910 N   0  0  0  0  0  0  0  0  0  0  0  0
   11.4210   22.5850   14.5620 C   0  0  0  0  0  0  0  0  0  0  0  0
   11.9740   24.6380   15.8620 O   0  0  0  0  0  0  0  0  0  0  0  0
    8.8790   25.4210   16.5660 C   0  0  0  0  0  0  0  0  0  0  0  0
    7.4250   25.1310   16.9870 C   0  0  0  0  0  0  0  0  0  0  0  0
    7.2790   25.0630   18.4860 C   0  0  0  0  0  0  0  0  0  0  0  0
    6.5750   26.0340   16.4040 C   0  0  0  0  0  0  0  0  0  0  0  0
    5.9380   25.2990   18.9020 C   0  0  0  0  0  0  0  0  0  0  0  0
    5.1790   25.5360   16.5100 C   0  0  0  0  0  0  0  0  0  0  0  0
    4.8300   25.3840   17.9100 N   0  0  0  0  0  0  0  0  0  0  0  0
  1  2  1  0
  2  3  1  0
  1  4  1  0
  4  5  1  0
  4  6  1  0
  3  7  1  0
  5  8  1  0
  6  9  1  0
  7 10  2  0
  7 11  2  0
  7 12  1  1
  8 13  1  0
  9 13  1  0
 11 14  1  0
 14 15  1  0
 15 16  1  0
 16 17  1  0
 17 18  1  0
 18 19  1  0
 19 20  2  0
 20 21  1  0
 20 22  1  6
 20 23  2  0
 21 24  1  0
 24 25  1  0
 25 26  1  0
 25 27  1  0
 26 28  1  0
 27 29  1  0
 28 30  1  0
 29 30  1  0
M  END
>  <%Rank>  (247) 
97.619048

>  <N_hits>  (247) 
2

>  <submitter_name>  (247) 
nan

>  <original SMILES>  (247) 
nan

>  <∆G_unbound>  (247) 
1.301373

>  <∆G_bound>  (247) 
-5.16204

>  <regarded>  (247) 
mArh-6vxs_B_0_B,mArh-x0598_0_A

>  <ref_pdb>  (247) 
nan

>  <smiles>  (247) 
CS(=O)(=NCCCCCN=S(=O)(O)CCNC1CCCCC1)NCC1CCNCC1

>  <submitter_email>  (247) 
nan

>  <disregarded>  (247) 


>  <LE>  (247) 
-0.215447

>  <submitter_institution>  (247) 
nan

>  <ref_mols>  (247) 
mArh-6vxs_B_0_B,mArh-x0598_0_A

>  <N_constrained_atoms>  (247) 
25.0

>  <ref_url>  (247) 
nan

>  <method>  (247) 
nan

>  <comRMSD>  (247) 
1.884146

>  <N_unconstrained_atoms>  (247) 
5.0

>  <∆∆G>  (247) 
-6.463413

>  <runtime>  (247) 
29.699615

>  <generation_date>  (247) 
nan

$$$$
mArh-x0805_0_A-mArh-5l9k_A_0_A
     RDKit          3D

 52 57  0  0  0  0  0  0  0  0999 V2000
   -4.1800   15.6100    1.4210 C   0  0  0  0  0  0  0  0  0  0  0  0
   -2.8660   15.0110    1.6560 O   0  0  0  0  0  0  0  0  0  0  0  0
   -2.6450   14.6480    0.3810 C   0  0  0  0  0  0  0  0  0  0  0  0
   -4.2180   15.3940   -0.1030 C   0  0  0  0  0  0  0  0  0  0  0  0
   -2.9570   15.3620   -0.5800 N   0  0  0  0  0  0  0  0  0  0  0  0
   -5.2470   15.1960   -1.1090 C   0  0  0  0  0  0  0  0  0  0  0  0
   -3.7600   14.2860   -0.3740 C   0  0  0  0  0  0  0  0  0  0  0  0
   -1.3560   14.6480   -0.2060 C   0  0  0  0  0  0  0  0  0  0  0  0
   -4.7650   14.9920   -2.4250 C   0  0  0  0  0  0  0  0  0  0  0  0
   -2.6900   15.1730   -1.8840 C   0  0  0  0  0  0  0  0  0  0  0  0
   -6.6280   15.1340   -1.1570 N   0  0  0  0  0  0  0  0  0  0  0  0
   -3.6400   13.9500   -1.7070 C   0  0  0  0  0  0  0  0  0  0  0  0
   -1.2480   14.2910   -1.5840 C   0  0  0  0  0  0  0  0  0  0  0  0
   -3.5280   14.9780   -2.8780 N   0  0  0  0  0  0  0  0  0  0  0  0
   -5.8080   14.7790   -3.2450 N   0  0  0  0  0  0  0  0  0  0  0  0
   -6.9280   14.8850   -2.4450 C   0  0  0  0  0  0  0  0  0  0  0  0
   -2.3880   13.9650   -2.3020 C   0  0  0  0  0  0  0  0  0  0  0  0
   -0.0170   14.1870   -2.4270 C   0  0  2  0  0  0  0  0  0  0  0  0
   -5.6070   14.4860   -4.6910 C   0  0  1  0  0  0  0  0  0  0  0  0
    1.0400   13.3930   -1.7020 C   0  0  1  0  0  0  0  0  0  0  0  0
    0.5010   15.4330   -3.1050 C   0  0  0  0  0  0  0  0  0  0  0  0
   -4.7600   15.4620   -5.3630 O   0  0  0  0  0  0  0  0  0  0  0  0
   -4.9230   13.1580   -5.0580 C   0  0  1  0  0  0  0  0  0  0  0  0
    1.1370   12.0440   -2.3890 C   0  0  0  0  0  0  0  0  0  0  0  0
   -5.5140   12.5370   -6.1980 O   0  0  0  0  0  0  0  0  0  0  0  0
    2.3860   14.1160   -1.6580 C   0  0  0  0  0  0  0  0  0  0  0  0
    1.8090   15.1230   -3.7940 C   0  0  0  0  0  0  0  0  0  0  0  0
   -3.4160   15.0220   -5.6280 C   0  0  2  0  0  0  0  0  0  0  0  0
   -3.4450   13.5210   -5.3320 C   0  0  2  0  0  0  0  0  0  0  0  0
    1.7800   12.1120   -3.5770 O   0  0  0  0  0  0  0  0  0  0  0  0
    0.6800   10.9840   -1.9450 O   0  0  0  0  0  0  0  0  0  0  0  0
   -2.4130   15.8480   -4.7700 C   0  0  0  0  0  0  0  0  0  0  0  0
   -3.0440   12.7660   -6.4930 O   0  0  0  0  0  0  0  0  0  0  0  0
    2.8250   14.7400   -2.8620 O   0  0  0  0  0  0  0  0  0  0  0  0
   -1.4560   16.5610   -5.5680 O   0  0  0  0  0  0  0  0  0  0  0  0
   -1.5450   18.1620   -5.7140 P   0  0  2  0  0  0  0  0  0  0  0  0
   -1.9850   18.9540   -4.5490 O   0  0  0  0  0  0  0  0  0  0  0  0
   -2.5540   18.2650   -6.9480 O   0  0  0  0  0  0  0  0  0  0  0  0
   -0.2060   18.6890   -6.3630 O   0  0  0  0  0  0  0  0  0  0  0  0
   -0.2310   19.4900   -7.7240 P   0  0  2  0  0  0  0  0  0  0  0  0
    0.1620   18.6670   -8.8780 O   0  0  0  0  0  0  0  0  0  0  0  0
    0.7310   20.7570   -7.5500 O   0  0  0  0  0  0  0  0  0  0  0  0
   -1.6710   20.1800   -7.8490 O   0  0  0  0  0  0  0  0  0  0  0  0
   -1.7650   21.5920   -7.7010 C   0  0  0  0  0  0  0  0  0  0  0  0
   -3.1470   22.0560   -8.1790 C   0  0  2  0  0  0  0  0  0  0  0  0
   -3.4980   23.5120   -7.8830 C   0  0  1  0  0  0  0  0  0  0  0  0
   -4.1890   21.3320   -7.5180 O   0  0  0  0  0  0  0  0  0  0  0  0
   -4.3860   24.0100   -8.9160 O   0  0  0  0  0  0  0  0  0  0  0  0
   -4.4950   21.9870   -6.2930 C   0  0  1  0  0  0  0  0  0  0  0  0
   -4.2600   23.4810   -6.5450 C   0  0  2  0  0  0  0  0  0  0  0  0
   -5.8690   21.7390   -6.0220 O   0  0  0  0  0  0  0  0  0  0  0  0
   -5.5060   24.1940   -6.6140 O   0  0  0  0  0  0  0  0  0  0  0  0
  1  2  1  0
  2  3  1  0
  1  4  1  0
  4  5  2  0
  4  6  1  0
  3  7  2  0
  3  8  1  0
  6  9  2  0
  5 10  1  0
  6 11  1  0
  7 12  1  0
  8 13  2  0
  9 14  1  0
 10 14  2  0
  9 15  1  0
 11 16  2  0
 15 16  1  0
 12 17  2  0
 13 17  1  0
 18 13  1  1
 19 15  1  1
 18 20  1  0
 18 21  1  0
 19 22  1  0
 19 23  1  0
 20 24  1  6
 23 25  1  6
 20 26  1  0
 21 27  1  0
 22 28  1  0
 23 29  1  0
 28 29  1  0
 24 30  1  0
 24 31  2  0
 28 32  1  1
 29 33  1  6
 26 34  1  0
 27 34  1  0
 32 35  1  0
 35 36  1  0
 36 37  2  0
 36 38  1  6
 36 39  1  0
 39 40  1  0
 40 41  2  0
 40 42  1  1
 40 43  1  0
 43 44  1  0
 45 44  1  1
 45 46  1  0
 45 47  1  0
 46 48  1  6
 47 49  1  0
 46 50  1  0
 49 50  1  0
 49 51  1  6
 50 52  1  6
M  END
>  <%Rank>  (248) 
98.015873

>  <N_hits>  (248) 
2

>  <submitter_name>  (248) 
nan

>  <original SMILES>  (248) 
nan

>  <∆G_unbound>  (248) 
5.888651

>  <∆G_bound>  (248) 
-1.826946

>  <regarded>  (248) 
mArh-x0805_0_A,mArh-5l9k_A_0_A

>  <ref_pdb>  (248) 
nan

>  <smiles>  (248) 
O=C(O)C1COCCC1c1cccc(OCc2ncnc3c2ncn3C2OC(CO[P@](=O)(O)O[P@](=O)(O)OCC3OC(O)C(O)C3O)C(O)C2O)c1

>  <submitter_email>  (248) 
nan

>  <disregarded>  (248) 


>  <LE>  (248) 
-0.148377

>  <submitter_institution>  (248) 
nan

>  <ref_mols>  (248) 
mArh-x0805_0_A,mArh-5l9k_A_0_A

>  <N_constrained_atoms>  (248) 
52.0

>  <ref_url>  (248) 
nan

>  <method>  (248) 
nan

>  <comRMSD>  (248) 
2.269535

>  <N_unconstrained_atoms>  (248) 
0.0

>  <∆∆G>  (248) 
-7.715596

>  <runtime>  (248) 
167.542014

>  <generation_date>  (248) 
nan

$$$$
mArh-x0910_2_B-mArh-5cb5_L_0_L
     RDKit          3D

 48 52  0  0  0  0  0  0  0  0999 V2000
  -12.1800   22.4440    0.0400 N   0  0  0  0  0  0  0  0  0  0  0  0
  -12.5300   23.4480   -0.7880 C   0  0  0  0  0  0  0  0  0  0  0  0
  -11.8930   23.6870   -1.9690 N   0  0  0  0  0  0  0  0  0  0  0  0
  -13.4830   24.3220   -0.6170 N   0  0  0  0  0  0  0  0  0  0  0  0
  -10.7880   22.9390   -2.5260 C   0  0  0  0  0  0  0  0  0  0  0  0
  -12.4350   24.7500   -2.6070 N   0  0  0  0  0  0  0  0  0  0  0  0
  -13.3920   25.0960   -1.7440 C   0  0  0  0  0  0  0  0  0  0  0  0
   -9.2310   23.5790   -2.2800 C   0  0  0  0  0  0  0  0  0  0  0  0
   -7.5710   23.0160   -3.3360 C   0  0  0  0  0  0  0  0  0  0  0  0
   -6.6220   21.8110   -4.3220 C   0  0  0  0  0  0  0  0  0  0  0  0
   -5.8020   21.9640   -5.7270 C   0  0  0  0  0  0  0  0  0  0  0  0
   -6.0720   21.3660   -7.1260 C   0  0  0  0  0  0  0  0  0  0  0  0
   -4.8870   21.0440   -7.7840 O   0  0  0  0  0  0  0  0  0  0  0  0
   -4.5790   21.9500   -8.8370 C   0  0  1  0  0  0  0  0  0  0  0  0
   -4.4250   23.3820   -8.3090 C   0  0  2  0  0  0  0  0  0  0  0  0
   -3.2620   21.6280   -9.2130 O   0  0  0  0  0  0  0  0  0  0  0  0
   -4.5770   24.3020   -9.3930 O   0  0  0  0  0  0  0  0  0  0  0  0
   -2.9960   23.3650   -7.7510 C   0  0  1  0  0  0  0  0  0  0  0  0
   -2.6640   21.9020   -7.9410 C   0  0  2  0  0  0  0  0  0  0  0  0
   -2.1260   24.1840   -8.5170 O   0  0  0  0  0  0  0  0  0  0  0  0
   -1.2380   21.4770   -7.9020 C   0  0  0  0  0  0  0  0  0  0  0  0
   -1.2250   20.1000   -7.5860 O   0  0  0  0  0  0  0  0  0  0  0  0
    0.2080   19.5520   -7.4500 P   0  0  2  0  0  0  0  0  0  0  0  0
    1.2590   20.6160   -7.4500 O   0  0  0  0  0  0  0  0  0  0  0  0
    0.2730   18.5420   -8.6800 O   0  0  0  0  0  0  0  0  0  0  0  0
    0.1980   18.5230   -6.2430 O   0  0  0  0  0  0  0  0  0  0  0  0
   -1.1300   17.8640   -5.7300 P   0  0  2  0  0  0  0  0  0  0  0  0
   -0.6470   16.4580   -5.1240 O   0  0  0  0  0  0  0  0  0  0  0  0
   -2.2790   17.7690   -6.6820 O   0  0  0  0  0  0  0  0  0  0  0  0
   -1.4800   18.7200   -4.4350 O   0  0  0  0  0  0  0  0  0  0  0  0
    0.7560   16.2070   -4.9350 C   0  0  0  0  0  0  0  0  0  0  0  0
    0.9900   15.0000   -4.0190 C   0  0  1  0  0  0  0  0  0  0  0  0
    0.1040   15.1140   -2.8930 O   0  0  0  0  0  0  0  0  0  0  0  0
    0.6900   13.5910   -4.5740 C   0  0  1  0  0  0  0  0  0  0  0  0
    1.6920   12.6230   -4.2290 O   0  0  0  0  0  0  0  0  0  0  0  0
   -0.6340   13.1730   -3.8840 C   0  0  2  0  0  0  0  0  0  0  0  0
   -1.1260   14.5110   -3.3580 C   0  0  1  0  0  0  0  0  0  0  0  0
   -0.4570   12.1290   -2.9340 O   0  0  0  0  0  0  0  0  0  0  0  0
   -2.1280   14.7450   -2.3360 N   0  0  0  0  0  0  0  0  0  0  0  0
   -1.9200   14.6730   -0.9780 C   0  0  0  0  0  0  0  0  0  0  0  0
   -3.4270   15.0970   -2.5100 C   0  0  0  0  0  0  0  0  0  0  0  0
   -3.1450   15.0180   -0.3670 C   0  0  0  0  0  0  0  0  0  0  0  0
   -0.7710   14.3500   -0.3530 N   0  0  0  0  0  0  0  0  0  0  0  0
   -4.1370   15.2890   -1.2840 N   0  0  0  0  0  0  0  0  0  0  0  0
   -3.1680   15.0420    1.1510 C   0  0  0  0  0  0  0  0  0  0  0  0
   -0.9440   14.3980    1.1180 C   0  0  0  0  0  0  0  0  0  0  0  0
   -4.3000   15.3950    1.8570 N   0  0  0  0  0  0  0  0  0  0  0  0
   -2.0410   14.7140    1.8320 N   0  0  0  0  0  0  0  0  0  0  0  0
  1  2  1  0
  2  3  1  0
  2  4  2  0
  3  5  1  0
  3  6  1  0
  4  7  1  0
  6  7  2  0
  5  8  1  0
  8  9  1  0
  9 10  1  0
 10 11  1  0
 11 12  1  0
 12 13  1  0
 14 13  1  1
 14 15  1  0
 14 16  1  0
 15 17  1  6
 15 18  1  0
 16 19  1  0
 18 19  1  0
 18 20  1  6
 19 21  1  6
 21 22  1  0
 22 23  1  0
 23 24  2  0
 23 25  1  6
 23 26  1  0
 26 27  1  0
 27 28  1  0
 27 29  2  0
 27 30  1  1
 28 31  1  0
 32 31  1  6
 32 33  1  0
 32 34  1  0
 34 35  1  1
 34 36  1  0
 33 37  1  0
 36 37  1  0
 36 38  1  1
 37 39  1  1
 39 40  1  0
 39 41  1  0
 40 42  2  0
 40 43  1  0
 41 44  2  0
 42 44  1  0
 42 45  1  0
 43 46  2  0
 45 47  1  0
 45 48  2  0
 46 48  1  0
M  END
>  <%Rank>  (249) 
98.412698

>  <N_hits>  (249) 
2

>  <submitter_name>  (249) 
nan

>  <original SMILES>  (249) 
nan

>  <∆G_unbound>  (249) 
3.485556

>  <∆G_bound>  (249) 
105.482795

>  <regarded>  (249) 
mArh-x0910_2_B,mArh-5cb5_L_0_L

>  <ref_pdb>  (249) 
nan

>  <smiles>  (249) 
Nc1ncnc2c1ncn2C1OC(CO[P@@](=O)(O)O[P@@](=O)(O)OCC2OC(OCCCCCCn3ncnc3N)C(O)C2O)C(O)C1O

>  <submitter_email>  (249) 
nan

>  <disregarded>  (249) 


>  <LE>  (249) 
2.124942

>  <submitter_institution>  (249) 
nan

>  <ref_mols>  (249) 
mArh-x0910_2_B,mArh-5cb5_L_0_L

>  <N_constrained_atoms>  (249) 
42.0

>  <ref_url>  (249) 
nan

>  <method>  (249) 
nan

>  <comRMSD>  (249) 
1.294189

>  <N_unconstrained_atoms>  (249) 
6.0

>  <∆∆G>  (249) 
101.997239

>  <runtime>  (249) 
102.750917

>  <generation_date>  (249) 
nan

$$$$
mArh-4gvw_0_A-mArh-x0729_2_B
     RDKit          3D

 32 33  0  0  0  0  0  0  0  0999 V2000
   -0.1740   18.9030   -6.3740 O   0  0  0  0  0  0  0  0  0  0  0  0
    0.0440   19.5320   -7.6740 S   0  0  0  0  0  0  0  0  0  0  0  0
    0.9380   20.6890   -7.6520 O   0  0  0  0  0  0  0  0  0  0  0  0
    0.2480   18.5780   -8.7750 O   0  0  0  0  0  0  0  0  0  0  0  0
   -1.5340   20.2420   -8.0580 C   0  0  0  0  0  0  0  0  0  0  0  0
   -1.8420   21.5790   -7.4100 C   0  0  0  0  0  0  0  0  0  0  0  0
   -3.3110   21.8770   -7.4460 N   0  0  0  0  0  0  0  0  0  0  0  0
   -3.7050   22.7980   -6.3640 C   0  0  0  0  0  0  0  0  0  0  0  0
   -3.7680   22.4260   -8.7310 C   0  0  0  0  0  0  0  0  0  0  0  0
   -5.2080   23.1450   -6.3500 C   0  0  2  0  0  0  0  0  0  0  0  0
   -5.2790   22.6980   -8.7540 C   0  0  0  0  0  0  0  0  0  0  0  0
   -5.9830   21.9460   -5.7420 C   0  0  0  0  0  0  0  0  0  0  0  0
   -5.7460   23.4860   -7.6460 O   0  0  0  0  0  0  0  0  0  0  0  0
   -6.6980   21.8920   -4.2550 C   0  0  0  0  0  0  0  0  0  0  0  0
   -8.1170   23.1020   -3.1290 C   0  0  0  0  0  0  0  0  0  0  0  0
  -10.2630   22.9510   -2.8360 C   0  0  0  0  0  0  0  0  0  0  0  0
  -11.2010   21.8310   -2.2570 C   0  0  0  0  0  0  0  0  0  0  0  0
  -12.6360   22.1060   -2.6910 C   0  0  0  0  0  0  0  0  0  0  0  0
  -12.9520   23.5990   -2.6060 C   0  0  0  0  0  0  0  0  0  0  0  0
  -13.9730   23.8490   -1.5810 C   0  0  0  0  0  0  0  0  0  0  0  0
  -14.8210   24.0380   -0.7570 C   0  0  0  0  0  0  0  0  0  0  0  0
  -15.8760   24.2450    0.2520 C   0  0  2  0  0  0  0  0  0  0  0  0
  -17.0180   25.0950   -0.3290 C   0  0  0  0  0  0  0  0  0  0  0  0
  -15.3270   24.9550    1.5010 C   0  0  2  0  0  0  0  0  0  0  0  0
  -14.1810   24.1960    2.1600 C   0  0  0  0  0  0  0  0  0  0  0  0
  -16.4420   25.1770    2.4660 N   0  0  0  0  0  0  0  0  0  0  0  0
  -17.2980   26.3620    0.4950 C   0  0  0  0  0  0  0  0  0  0  0  0
  -16.3300   24.7350    4.0920 S   0  0  0  0  0  0  0  0  0  0  0  0
  -17.4580   26.1220    1.9960 C   0  0  0  0  0  0  0  0  0  0  0  0
  -16.6360   25.8960    4.8990 O   0  0  0  0  0  0  0  0  0  0  0  0
  -15.1130   23.9870    4.2900 O   0  0  0  0  0  0  0  0  0  0  0  0
  -17.6830   23.5940    4.2780 C   0  0  0  0  0  0  0  0  0  0  0  0
  1  2  2  0
  2  3  2  0
  2  4  1  0
  2  5  1  0
  5  6  1  0
  6  7  1  0
  7  8  1  0
  7  9  1  0
  8 10  1  0
  9 11  1  0
 10 12  1  6
 10 13  1  0
 11 13  1  0
 12 14  1  0
 14 15  1  0
 15 16  1  0
 16 17  1  0
 17 18  1  0
 18 19  1  0
 19 20  1  0
 20 21  3  0
 22 21  1  6
 22 23  1  0
 22 24  1  0
 24 25  1  1
 24 26  1  0
 23 27  1  0
 26 28  1  0
 26 29  1  0
 27 29  1  0
 28 30  2  0
 28 31  2  0
 28 32  1  0
M  CHG  1   4  -1
M  END
>  <%Rank>  (250) 
98.809524

>  <N_hits>  (250) 
2

>  <submitter_name>  (250) 
nan

>  <original SMILES>  (250) 
nan

>  <∆G_unbound>  (250) 
0.137474

>  <∆G_bound>  (250) 
92.079202

>  <regarded>  (250) 
mArh-4gvw_0_A,mArh-x0729_2_B

>  <ref_pdb>  (250) 
nan

>  <smiles>  (250) 
CC1C(C#CCCCCCCCC2CN(CCS(=O)(=O)[O-])CCO2)CCCN1S(C)(=O)=O

>  <submitter_email>  (250) 
nan

>  <disregarded>  (250) 


>  <LE>  (250) 
2.873179

>  <submitter_institution>  (250) 
nan

>  <ref_mols>  (250) 
mArh-4gvw_0_A,mArh-x0729_2_B

>  <N_constrained_atoms>  (250) 
25.0

>  <ref_url>  (250) 
nan

>  <method>  (250) 
nan

>  <comRMSD>  (250) 
0.904349

>  <N_unconstrained_atoms>  (250) 
7.0

>  <∆∆G>  (250) 
91.941728

>  <runtime>  (250) 
162.904915

>  <generation_date>  (250) 
nan

$$$$
mArh-x0918_4_B-mArh-x0598_0_A
     RDKit          3D

 20 21  0  0  0  0  0  0  0  0999 V2000
   15.2000   22.8320   12.6210 N   0  0  0  0  0  0  0  0  0  0  0  0
   14.1190   22.0560   13.0490 C   0  0  0  0  0  0  0  0  0  0  0  0
   13.9150   20.8490   12.3870 C   0  0  0  0  0  0  0  0  0  0  0  0
   13.2580   22.4310   14.0850 C   0  0  0  0  0  0  0  0  0  0  0  0
   13.4420   23.7580   14.8350 C   0  0  0  0  0  0  0  0  0  0  0  0
   12.2320   21.5130   14.3780 C   0  0  0  0  0  0  0  0  0  0  0  0
   12.8790   20.0400   12.7580 C   0  0  0  0  0  0  0  0  0  0  0  0
   12.6350   23.9600   16.0700 N   0  0  0  0  0  0  0  0  0  0  0  0
   12.0310   20.3350   13.7380 N   0  0  0  0  0  0  0  0  0  0  0  0
   11.1980   23.5970   15.9330 S   0  0  2  0  0  0  0  0  0  0  0  0
   10.1630   24.8760   16.4500 N   0  0  0  0  0  0  0  0  0  0  0  0
   10.8950   22.1460   16.9190 C   0  0  0  0  0  0  0  0  0  0  0  0
   10.8480   23.3650   14.5690 O   0  0  0  0  0  0  0  0  0  0  0  0
    8.8350   24.7870   17.1340 C   0  0  0  0  0  0  0  0  0  0  0  0
    7.6680   25.7530   16.7000 C   0  0  0  0  0  0  0  0  0  0  0  0
    6.5500   24.9950   15.9400 C   0  0  0  0  0  0  0  0  0  0  0  0
    7.0510   26.5540   17.8570 C   0  0  0  0  0  0  0  0  0  0  0  0
    5.0670   25.1000   16.3470 C   0  0  0  0  0  0  0  0  0  0  0  0
    5.6390   27.0570   17.5450 C   0  0  0  0  0  0  0  0  0  0  0  0
    4.6970   25.9730   17.4400 N   0  0  0  0  0  0  0  0  0  0  0  0
  1  2  1  0
  2  3  2  0
  2  4  1  0
  4  5  1  0
  4  6  2  0
  3  7  1  0
  5  8  1  0
  6  9  1  0
  7  9  2  0
  8 10  2  0
 10 11  1  0
 10 12  1  1
 10 13  2  0
 11 14  1  0
 14 15  1  0
 15 16  1  0
 15 17  1  0
 16 18  1  0
 17 19  1  0
 18 20  1  0
 19 20  1  0
M  END
>  <%Rank>  (251) 
99.206349

>  <N_hits>  (251) 
2

>  <submitter_name>  (251) 
nan

>  <original SMILES>  (251) 
nan

>  <∆G_unbound>  (251) 
0.794032

>  <∆G_bound>  (251) 
-2.703153

>  <regarded>  (251) 
mArh-x0918_4_B,mArh-x0598_0_A

>  <ref_pdb>  (251) 
nan

>  <smiles>  (251) 
CS(=O)(=NCc1cnccc1N)NCC1CCNCC1

>  <submitter_email>  (251) 
nan

>  <disregarded>  (251) 


>  <LE>  (251) 
-0.174859

>  <submitter_institution>  (251) 
nan

>  <ref_mols>  (251) 
mArh-x0918_4_B,mArh-x0598_0_A

>  <N_constrained_atoms>  (251) 
19.0

>  <ref_url>  (251) 
nan

>  <method>  (251) 
nan

>  <comRMSD>  (251) 
2.497992

>  <N_unconstrained_atoms>  (251) 
1.0

>  <∆∆G>  (251) 
-3.497185

>  <runtime>  (251) 
33.577892

>  <generation_date>  (251) 
nan

$$$$
mArh-3ew5_A_0_A-mArh-mac-194_0_A
     RDKit          3D

 29 30  0  0  0  0  0  0  0  0999 V2000
   -0.0120   19.5040   -7.5470 P   0  0  0  0  0  0  0  0  0  0  0  0
   -1.5060   19.9960   -7.7080 O   0  0  0  0  0  0  0  0  0  0  0  0
   -1.6470   21.2060   -8.4240 C   0  0  0  0  0  0  0  0  0  0  0  0
    1.0430   20.5590   -7.4480 O   0  0  0  0  0  0  0  0  0  0  0  0
    0.1790   18.5620   -8.8050 O   0  0  0  0  0  0  0  0  0  0  0  0
   -0.0070   18.4480   -6.3480 O   0  0  0  0  0  0  0  0  0  0  0  0
   -2.2670   22.2100   -7.4920 C   0  0  2  0  0  0  0  0  0  0  0  0
   -3.7030   22.5190   -7.8440 C   0  0  0  0  0  0  0  0  0  0  0  0
   -1.5080   23.4040   -7.4660 O   0  0  0  0  0  0  0  0  0  0  0  0
   -4.4810   21.4640   -7.3060 O   0  0  0  0  0  0  0  0  0  0  0  0
   -4.5090   21.4340   -5.8820 C   0  0  0  0  0  0  0  0  0  0  0  0
   -5.9770   21.6020   -5.5840 C   0  0  0  0  0  0  0  0  0  0  0  0
   -6.6520   21.1800   -4.1000 C   0  0  0  0  0  0  0  0  0  0  0  0
   -8.1360   19.5160   -2.9040 C   0  0  0  0  0  0  0  0  0  0  0  0
   -8.4960   18.0950   -2.0000 C   0  0  0  0  0  0  0  0  0  0  0  0
   -7.7700   16.7190   -1.8640 C   0  0  0  0  0  0  0  0  0  0  0  0
   -8.7200   15.5560   -2.1350 C   0  0  0  0  0  0  0  0  0  0  0  0
   -8.9140   14.8640   -0.8850 N   0  0  0  0  0  0  0  0  0  0  0  0
   -7.9010   14.5080   -0.1870 C   0  0  0  0  0  0  0  0  0  0  0  0
   -7.8970   13.8990    1.0230 N   0  0  0  0  0  0  0  0  0  0  0  0
   -6.4950   14.7740   -0.6560 C   0  0  0  0  0  0  0  0  0  0  0  0
   -7.0850   14.3820    1.9870 C   0  0  0  0  0  0  0  0  0  0  0  0
   -5.5530   14.9630    0.3730 C   0  0  0  0  0  0  0  0  0  0  0  0
   -6.1080   14.8370   -2.0000 C   0  0  0  0  0  0  0  0  0  0  0  0
   -7.5790   14.2950    3.2400 N   0  0  0  0  0  0  0  0  0  0  0  0
   -5.9200   14.9060    1.7380 N   0  0  0  0  0  0  0  0  0  0  0  0
   -4.2230   15.2200    0.0370 C   0  0  0  0  0  0  0  0  0  0  0  0
   -4.7740   15.0940   -2.3180 C   0  0  0  0  0  0  0  0  0  0  0  0
   -3.8360   15.2840   -1.3040 C   0  0  0  0  0  0  0  0  0  0  0  0
  1  2  1  0
  2  3  1  0
  1  4  2  0
  1  5  1  0
  1  6  1  0
  3  7  1  0
  7  8  1  0
  7  9  1  6
  8 10  1  0
 10 11  1  0
 11 12  1  0
 12 13  1  0
 13 14  1  0
 14 15  1  0
 15 16  1  0
 16 17  1  0
 17 18  1  0
 18 19  2  3
 19 20  1  0
 19 21  1  0
 20 22  1  0
 21 23  2  0
 21 24  1  0
 22 25  1  0
 22 26  2  0
 23 26  1  0
 23 27  1  0
 24 28  2  0
 27 29  2  0
 28 29  1  0
M  END
>  <%Rank>  (252) 
99.603175

>  <N_hits>  (252) 
2

>  <submitter_name>  (252) 
nan

>  <original SMILES>  (252) 
nan

>  <∆G_unbound>  (252) 
0.402788

>  <∆G_bound>  (252) 
84.986649

>  <regarded>  (252) 
mArh-3ew5_A_0_A,mArh-mac-194_0_A

>  <ref_pdb>  (252) 
nan

>  <smiles>  (252) 
Nc1nc2ccccc2c(=NCCCCCCCOC[C@H](O)COP(=O)(O)O)[nH]1

>  <submitter_email>  (252) 
nan

>  <disregarded>  (252) 


>  <LE>  (252) 
2.916685

>  <submitter_institution>  (252) 
nan

>  <ref_mols>  (252) 
mArh-3ew5_A_0_A,mArh-mac-194_0_A

>  <N_constrained_atoms>  (252) 
22.0

>  <ref_url>  (252) 
nan

>  <method>  (252) 
nan

>  <comRMSD>  (252) 
1.212926

>  <N_unconstrained_atoms>  (252) 
7.0

>  <∆∆G>  (252) 
84.583861

>  <runtime>  (252) 
99.301961

>  <generation_date>  (252) 
nan

$$$$
mArh-3gqe_A_0_A-mArh-x0852_0_B
     RDKit          3D

 27 27  0  0  0  0  0  0  0  0999 V2000
   -4.1670   21.2430   -7.0850 C   0  0  0  0  0  0  0  0  0  0  0  0
   -2.6950   21.3950   -6.9980 N   0  0  0  0  0  0  0  0  0  0  0  0
   -2.1910   22.3140   -8.0100 C   0  0  0  0  0  0  0  0  0  0  0  0
   -4.8510   21.2340   -5.7370 C   0  0  0  0  0  0  0  0  0  0  0  0
   -1.9520   20.1120   -7.0140 C   0  0  0  0  0  0  0  0  0  0  0  0
   -6.1510   21.1450   -5.4750 N   0  0  0  0  0  0  0  0  0  0  0  0
   -3.9750   21.3020   -4.6920 O   0  0  0  0  0  0  0  0  0  0  0  0
   -2.7760   23.7240   -7.9240 C   0  0  0  0  0  0  0  0  0  0  0  0
   -0.6840   20.0400   -7.8960 C   0  0  0  0  0  0  0  0  0  0  0  0
   -6.7090   21.1020   -4.0450 C   0  0  0  0  0  0  0  0  0  0  0  0
   -3.9590   23.8530   -8.7270 O   0  0  0  0  0  0  0  0  0  0  0  0
   -0.6290   18.7850   -8.5670 O   0  0  0  0  0  0  0  0  0  0  0  0
   -8.2830   19.4100   -2.8550 C   0  0  0  0  0  0  0  0  0  0  0  0
   -8.6930   17.9010   -2.2570 C   0  0  0  0  0  0  0  0  0  0  0  0
   -9.6250   17.6930   -1.0460 C   0  0  0  0  0  0  0  0  0  0  0  0
   -9.4200   16.2960   -0.4530 C   0  0  0  0  0  0  0  0  0  0  0  0
  -10.3690   15.9560    0.6980 C   0  0  0  0  0  0  0  0  0  0  0  0
  -10.2190   16.8450    1.8050 O   0  0  0  0  0  0  0  0  0  0  0  0
   -9.5110   16.4260    2.8980 C   0  0  0  0  0  0  0  0  0  0  0  0
   -8.5300   15.4370    2.9070 C   0  0  0  0  0  0  0  0  0  0  0  0
   -9.8320   17.0820    4.0940 C   0  0  0  0  0  0  0  0  0  0  0  0
   -7.8750   15.1070    4.0930 C   0  0  0  0  0  0  0  0  0  0  0  0
   -9.1800   16.7510    5.2910 C   0  0  0  0  0  0  0  0  0  0  0  0
   -9.5440   17.4410    6.4930 C   0  0  0  0  0  0  0  0  0  0  0  0
   -8.1930   15.7540    5.2780 C   0  0  0  0  0  0  0  0  0  0  0  0
   -9.8590   17.9530    7.4910 N   0  0  0  0  0  0  0  0  0  0  0  0
   -7.4810   15.3340    6.3690 O   0  0  0  0  0  0  0  0  0  0  0  0
  1  2  1  0
  2  3  1  0
  1  4  1  0
  2  5  1  0
  4  6  2  3
  4  7  1  0
  3  8  1  0
  5  9  1  0
  6 10  1  0
  8 11  1  0
  9 12  1  0
 10 13  1  0
 13 14  1  0
 14 15  1  0
 15 16  1  0
 16 17  1  0
 17 18  1  0
 18 19  1  0
 19 20  2  0
 19 21  1  0
 20 22  1  0
 21 23  2  0
 23 24  1  0
 22 25  2  0
 23 25  1  0
 24 26  3  0
 25 27  1  0
M  END
>  <%Rank>  (253) 
100.0

>  <N_hits>  (253) 
2

>  <submitter_name>  (253) 
nan

>  <original SMILES>  (253) 
nan

>  <∆G_unbound>  (253) 
0.631577

>  <∆G_bound>  (253) 
79.585784

>  <regarded>  (253) 
mArh-3gqe_A_0_A,mArh-x0852_0_B

>  <ref_pdb>  (253) 
nan

>  <smiles>  (253) 
N#Cc1cc(OCCCCCCN=C(O)CN(CCO)CCO)ccc1O

>  <submitter_email>  (253) 
nan

>  <disregarded>  (253) 


>  <LE>  (253) 
2.92423

>  <submitter_institution>  (253) 
nan

>  <ref_mols>  (253) 
mArh-3gqe_A_0_A,mArh-x0852_0_B

>  <N_constrained_atoms>  (253) 
21.0

>  <ref_url>  (253) 
nan

>  <method>  (253) 
nan

>  <comRMSD>  (253) 
1.941648

>  <N_unconstrained_atoms>  (253) 
6.0

>  <∆∆G>  (253) 
78.954207

>  <runtime>  (253) 
151.31198

>  <generation_date>  (253) 
nan

$$$$
